* NGSPICE file created from CDC.ext - technology: sky130A

.subckt sky130_fd_sc_hd__inv_16 VNB VPB VGND VPWR Y A
X0 Y A VPWR VPB sky130_fd_pr__pfet_01v8_hvt ad=0.135 pd=1.27 as=0.135 ps=1.27 w=1 l=0.15
X1 VPWR A Y VPB sky130_fd_pr__pfet_01v8_hvt ad=0.26 pd=2.52 as=0.135 ps=1.27 w=1 l=0.15
X2 VGND A Y VNB sky130_fd_pr__nfet_01v8 ad=0.0878 pd=0.92 as=0.0878 ps=0.92 w=0.65 l=0.15
X3 Y A VPWR VPB sky130_fd_pr__pfet_01v8_hvt ad=0.135 pd=1.27 as=0.135 ps=1.27 w=1 l=0.15
X4 VGND A Y VNB sky130_fd_pr__nfet_01v8 ad=0.0878 pd=0.92 as=0.0878 ps=0.92 w=0.65 l=0.15
X5 VGND A Y VNB sky130_fd_pr__nfet_01v8 ad=0.0878 pd=0.92 as=0.0878 ps=0.92 w=0.65 l=0.15
X6 Y A VPWR VPB sky130_fd_pr__pfet_01v8_hvt ad=0.135 pd=1.27 as=0.26 ps=2.52 w=1 l=0.15
X7 VGND A Y VNB sky130_fd_pr__nfet_01v8 ad=0.169 pd=1.82 as=0.0878 ps=0.92 w=0.65 l=0.15
X8 VPWR A Y VPB sky130_fd_pr__pfet_01v8_hvt ad=0.135 pd=1.27 as=0.135 ps=1.27 w=1 l=0.15
X9 Y A VGND VNB sky130_fd_pr__nfet_01v8 ad=0.0878 pd=0.92 as=0.0878 ps=0.92 w=0.65 l=0.15
X10 VPWR A Y VPB sky130_fd_pr__pfet_01v8_hvt ad=0.135 pd=1.27 as=0.135 ps=1.27 w=1 l=0.15
X11 Y A VGND VNB sky130_fd_pr__nfet_01v8 ad=0.0878 pd=0.92 as=0.0878 ps=0.92 w=0.65 l=0.15
X12 Y A VPWR VPB sky130_fd_pr__pfet_01v8_hvt ad=0.135 pd=1.27 as=0.135 ps=1.27 w=1 l=0.15
X13 VPWR A Y VPB sky130_fd_pr__pfet_01v8_hvt ad=0.135 pd=1.27 as=0.135 ps=1.27 w=1 l=0.15
X14 Y A VPWR VPB sky130_fd_pr__pfet_01v8_hvt ad=0.135 pd=1.27 as=0.135 ps=1.27 w=1 l=0.15
X15 VGND A Y VNB sky130_fd_pr__nfet_01v8 ad=0.0878 pd=0.92 as=0.0878 ps=0.92 w=0.65 l=0.15
X16 Y A VGND VNB sky130_fd_pr__nfet_01v8 ad=0.0878 pd=0.92 as=0.169 ps=1.82 w=0.65 l=0.15
X17 VGND A Y VNB sky130_fd_pr__nfet_01v8 ad=0.0878 pd=0.92 as=0.0878 ps=0.92 w=0.65 l=0.15
X18 VGND A Y VNB sky130_fd_pr__nfet_01v8 ad=0.0878 pd=0.92 as=0.0878 ps=0.92 w=0.65 l=0.15
X19 Y A VPWR VPB sky130_fd_pr__pfet_01v8_hvt ad=0.135 pd=1.27 as=0.135 ps=1.27 w=1 l=0.15
X20 VGND A Y VNB sky130_fd_pr__nfet_01v8 ad=0.0878 pd=0.92 as=0.0878 ps=0.92 w=0.65 l=0.15
X21 Y A VPWR VPB sky130_fd_pr__pfet_01v8_hvt ad=0.135 pd=1.27 as=0.135 ps=1.27 w=1 l=0.15
X22 VPWR A Y VPB sky130_fd_pr__pfet_01v8_hvt ad=0.135 pd=1.27 as=0.135 ps=1.27 w=1 l=0.15
X23 VPWR A Y VPB sky130_fd_pr__pfet_01v8_hvt ad=0.135 pd=1.27 as=0.135 ps=1.27 w=1 l=0.15
X24 VPWR A Y VPB sky130_fd_pr__pfet_01v8_hvt ad=0.135 pd=1.27 as=0.135 ps=1.27 w=1 l=0.15
X25 Y A VGND VNB sky130_fd_pr__nfet_01v8 ad=0.0878 pd=0.92 as=0.0878 ps=0.92 w=0.65 l=0.15
X26 Y A VPWR VPB sky130_fd_pr__pfet_01v8_hvt ad=0.135 pd=1.27 as=0.135 ps=1.27 w=1 l=0.15
X27 Y A VGND VNB sky130_fd_pr__nfet_01v8 ad=0.0878 pd=0.92 as=0.0878 ps=0.92 w=0.65 l=0.15
X28 Y A VGND VNB sky130_fd_pr__nfet_01v8 ad=0.0878 pd=0.92 as=0.0878 ps=0.92 w=0.65 l=0.15
X29 Y A VGND VNB sky130_fd_pr__nfet_01v8 ad=0.0878 pd=0.92 as=0.0878 ps=0.92 w=0.65 l=0.15
X30 VPWR A Y VPB sky130_fd_pr__pfet_01v8_hvt ad=0.135 pd=1.27 as=0.135 ps=1.27 w=1 l=0.15
X31 Y A VGND VNB sky130_fd_pr__nfet_01v8 ad=0.0878 pd=0.92 as=0.0878 ps=0.92 w=0.65 l=0.15
.ends

.subckt sky130_fd_sc_hd__nand2_8 VNB VPB VGND VPWR A Y B
X0 a_27_47# B VGND VNB sky130_fd_pr__nfet_01v8 ad=0.0878 pd=0.92 as=0.0878 ps=0.92 w=0.65 l=0.15
X1 Y A VPWR VPB sky130_fd_pr__pfet_01v8_hvt ad=0.135 pd=1.27 as=0.135 ps=1.27 w=1 l=0.15
X2 a_27_47# B VGND VNB sky130_fd_pr__nfet_01v8 ad=0.0878 pd=0.92 as=0.0878 ps=0.92 w=0.65 l=0.15
X3 a_27_47# A Y VNB sky130_fd_pr__nfet_01v8 ad=0.0878 pd=0.92 as=0.0878 ps=0.92 w=0.65 l=0.15
X4 a_27_47# A Y VNB sky130_fd_pr__nfet_01v8 ad=0.0878 pd=0.92 as=0.0878 ps=0.92 w=0.65 l=0.15
X5 Y B VPWR VPB sky130_fd_pr__pfet_01v8_hvt ad=0.135 pd=1.27 as=0.135 ps=1.27 w=1 l=0.15
X6 VPWR B Y VPB sky130_fd_pr__pfet_01v8_hvt ad=0.135 pd=1.27 as=0.135 ps=1.27 w=1 l=0.15
X7 Y A a_27_47# VNB sky130_fd_pr__nfet_01v8 ad=0.0878 pd=0.92 as=0.0878 ps=0.92 w=0.65 l=0.15
X8 Y A a_27_47# VNB sky130_fd_pr__nfet_01v8 ad=0.0878 pd=0.92 as=0.0878 ps=0.92 w=0.65 l=0.15
X9 Y A a_27_47# VNB sky130_fd_pr__nfet_01v8 ad=0.0878 pd=0.92 as=0.0878 ps=0.92 w=0.65 l=0.15
X10 Y B VPWR VPB sky130_fd_pr__pfet_01v8_hvt ad=0.135 pd=1.27 as=0.135 ps=1.27 w=1 l=0.15
X11 VPWR A Y VPB sky130_fd_pr__pfet_01v8_hvt ad=0.135 pd=1.27 as=0.135 ps=1.27 w=1 l=0.15
X12 Y A VPWR VPB sky130_fd_pr__pfet_01v8_hvt ad=0.135 pd=1.27 as=0.135 ps=1.27 w=1 l=0.15
X13 VPWR B Y VPB sky130_fd_pr__pfet_01v8_hvt ad=0.135 pd=1.27 as=0.135 ps=1.27 w=1 l=0.15
X14 VPWR A Y VPB sky130_fd_pr__pfet_01v8_hvt ad=0.135 pd=1.27 as=0.135 ps=1.27 w=1 l=0.15
X15 a_27_47# B VGND VNB sky130_fd_pr__nfet_01v8 ad=0.0878 pd=0.92 as=0.0878 ps=0.92 w=0.65 l=0.15
X16 a_27_47# B VGND VNB sky130_fd_pr__nfet_01v8 ad=0.0878 pd=0.92 as=0.0878 ps=0.92 w=0.65 l=0.15
X17 a_27_47# A Y VNB sky130_fd_pr__nfet_01v8 ad=0.247 pd=2.06 as=0.0878 ps=0.92 w=0.65 l=0.15
X18 Y A VPWR VPB sky130_fd_pr__pfet_01v8_hvt ad=0.135 pd=1.27 as=0.135 ps=1.27 w=1 l=0.15
X19 VPWR B Y VPB sky130_fd_pr__pfet_01v8_hvt ad=0.135 pd=1.27 as=0.135 ps=1.27 w=1 l=0.15
X20 VGND B a_27_47# VNB sky130_fd_pr__nfet_01v8 ad=0.0878 pd=0.92 as=0.0878 ps=0.92 w=0.65 l=0.15
X21 VGND B a_27_47# VNB sky130_fd_pr__nfet_01v8 ad=0.0878 pd=0.92 as=0.0878 ps=0.92 w=0.65 l=0.15
X22 Y B VPWR VPB sky130_fd_pr__pfet_01v8_hvt ad=0.135 pd=1.27 as=0.135 ps=1.27 w=1 l=0.15
X23 VPWR A Y VPB sky130_fd_pr__pfet_01v8_hvt ad=0.38 pd=2.76 as=0.135 ps=1.27 w=1 l=0.15
X24 VGND B a_27_47# VNB sky130_fd_pr__nfet_01v8 ad=0.0878 pd=0.92 as=0.0878 ps=0.92 w=0.65 l=0.15
X25 Y A a_27_47# VNB sky130_fd_pr__nfet_01v8 ad=0.0878 pd=0.92 as=0.0878 ps=0.92 w=0.65 l=0.15
X26 VPWR B Y VPB sky130_fd_pr__pfet_01v8_hvt ad=0.135 pd=1.27 as=0.135 ps=1.27 w=1 l=0.15
X27 Y A VPWR VPB sky130_fd_pr__pfet_01v8_hvt ad=0.135 pd=1.27 as=0.135 ps=1.27 w=1 l=0.15
X28 Y B VPWR VPB sky130_fd_pr__pfet_01v8_hvt ad=0.135 pd=1.27 as=0.26 ps=2.52 w=1 l=0.15
X29 VPWR A Y VPB sky130_fd_pr__pfet_01v8_hvt ad=0.135 pd=1.27 as=0.135 ps=1.27 w=1 l=0.15
X30 VGND B a_27_47# VNB sky130_fd_pr__nfet_01v8 ad=0.0878 pd=0.92 as=0.169 ps=1.82 w=0.65 l=0.15
X31 a_27_47# A Y VNB sky130_fd_pr__nfet_01v8 ad=0.0878 pd=0.92 as=0.0878 ps=0.92 w=0.65 l=0.15
.ends

.subckt transmission_gate G VPWR VGND O GN
X0 O G VPWR VGND sky130_fd_pr__nfet_01v8 ad=0.226 pd=1.92 as=0.226 ps=1.92 w=0.55 l=0.15
X1 O GN VPWR VPWR sky130_fd_pr__pfet_01v8 ad=0.226 pd=1.92 as=0.226 ps=1.92 w=0.55 l=0.15
.ends

.subckt sky130_fd_sc_hd__decap_4 VNB VPB VGND VPWR
X0 VPWR VGND VPWR VPB sky130_fd_pr__pfet_01v8_hvt ad=0.226 pd=2.26 as=0.452 ps=4.52 w=0.87 l=1.05
X1 VGND VPWR VGND VNB sky130_fd_pr__nfet_01v8 ad=0.143 pd=1.62 as=0.286 ps=3.24 w=0.55 l=1.05
.ends

.subckt sky130_fd_sc_hd__dfbbn_1 VNB VPB VGND VPWR Q Q_N RESET_B SET_B D CLK_N
X0 a_791_47# SET_B VGND VNB sky130_fd_pr__nfet_01v8 ad=0.0974 pd=0.97 as=0.0882 ps=0.84 w=0.42 l=0.15
X1 a_1555_47# SET_B VGND VNB sky130_fd_pr__nfet_01v8 ad=0.109 pd=1.03 as=0.0703 ps=0.755 w=0.42 l=0.15
X2 VPWR RESET_B a_941_21# VPB sky130_fd_pr__pfet_01v8_hvt ad=0.154 pd=1.34 as=0.17 ps=1.81 w=0.64 l=0.15
X3 a_1415_315# SET_B VPWR VPB sky130_fd_pr__pfet_01v8_hvt ad=0.132 pd=1.22 as=0.0956 ps=0.875 w=0.42 l=0.15
X4 a_791_47# a_941_21# a_647_21# VNB sky130_fd_pr__nfet_01v8 ad=0.166 pd=1.8 as=0.0864 ps=0.91 w=0.64 l=0.15
X5 VGND a_1415_315# a_1363_47# VNB sky130_fd_pr__nfet_01v8 ad=0.0703 pd=0.755 as=0.066 ps=0.745 w=0.42 l=0.15
X6 a_1340_413# a_27_47# a_1256_413# VPB sky130_fd_pr__pfet_01v8_hvt ad=0.0787 pd=0.795 as=0.0567 ps=0.69 w=0.42 l=0.15
X7 VPWR CLK_N a_27_47# VPB sky130_fd_pr__pfet_01v8_hvt ad=0.0864 pd=0.91 as=0.166 ps=1.8 w=0.64 l=0.15
X8 a_381_47# D VPWR VPB sky130_fd_pr__pfet_01v8_hvt ad=0.0651 pd=0.73 as=0.109 ps=1.36 w=0.42 l=0.15
X9 a_473_413# a_193_47# a_381_47# VNB sky130_fd_pr__nfet_01v8 ad=0.0675 pd=0.735 as=0.066 ps=0.745 w=0.36 l=0.15
X10 a_1555_47# a_941_21# a_1415_315# VNB sky130_fd_pr__nfet_01v8 ad=0.166 pd=1.8 as=0.0864 ps=0.91 w=0.64 l=0.15
X11 VPWR a_1415_315# a_2136_47# VPB sky130_fd_pr__pfet_01v8_hvt ad=0.149 pd=1.33 as=0.166 ps=1.8 w=0.64 l=0.15
X12 a_1256_413# a_193_47# a_1112_329# VPB sky130_fd_pr__pfet_01v8_hvt ad=0.0567 pd=0.69 as=0.174 ps=1.41 w=0.42 l=0.15
X13 a_581_47# a_27_47# a_473_413# VNB sky130_fd_pr__nfet_01v8 ad=0.0671 pd=0.75 as=0.0675 ps=0.735 w=0.36 l=0.15
X14 a_647_21# a_473_413# a_791_47# VNB sky130_fd_pr__nfet_01v8 ad=0.0864 pd=0.91 as=0.0974 ps=0.97 w=0.64 l=0.15
X15 a_647_21# SET_B VPWR VPB sky130_fd_pr__pfet_01v8_hvt ad=0.147 pd=1.23 as=0.0798 ps=0.8 w=0.42 l=0.15
X16 VPWR a_941_21# a_891_329# VPB sky130_fd_pr__pfet_01v8_hvt ad=0.225 pd=1.38 as=0.113 ps=1.11 w=0.84 l=0.15
X17 a_557_413# a_193_47# a_473_413# VPB sky130_fd_pr__pfet_01v8_hvt ad=0.0945 pd=0.87 as=0.0567 ps=0.69 w=0.42 l=0.15
X18 a_193_47# a_27_47# VGND VNB sky130_fd_pr__nfet_01v8 ad=0.109 pd=1.36 as=0.0567 ps=0.69 w=0.42 l=0.15
X19 Q a_2136_47# VPWR VPB sky130_fd_pr__pfet_01v8_hvt ad=0.26 pd=2.52 as=0.149 ps=1.33 w=1 l=0.15
X20 a_473_413# a_27_47# a_381_47# VPB sky130_fd_pr__pfet_01v8_hvt ad=0.0567 pd=0.69 as=0.0651 ps=0.73 w=0.42 l=0.15
X21 a_891_329# a_473_413# a_647_21# VPB sky130_fd_pr__pfet_01v8_hvt ad=0.113 pd=1.11 as=0.147 ps=1.23 w=0.84 l=0.15
X22 Q_N a_1415_315# VPWR VPB sky130_fd_pr__pfet_01v8_hvt ad=0.26 pd=2.52 as=0.154 ps=1.34 w=1 l=0.15
X23 VGND RESET_B a_941_21# VNB sky130_fd_pr__nfet_01v8 ad=0.097 pd=0.975 as=0.109 ps=1.36 w=0.42 l=0.15
X24 Q a_2136_47# VGND VNB sky130_fd_pr__nfet_01v8 ad=0.169 pd=1.82 as=0.097 ps=0.975 w=0.65 l=0.15
X25 VPWR a_647_21# a_557_413# VPB sky130_fd_pr__pfet_01v8_hvt ad=0.0798 pd=0.8 as=0.0945 ps=0.87 w=0.42 l=0.15
X26 a_1112_329# a_647_21# VPWR VPB sky130_fd_pr__pfet_01v8_hvt ad=0.174 pd=1.41 as=0.225 ps=1.38 w=0.84 l=0.15
X27 VGND a_647_21# a_581_47# VNB sky130_fd_pr__nfet_01v8 ad=0.0882 pd=0.84 as=0.0671 ps=0.75 w=0.42 l=0.15
X28 VGND a_1415_315# a_2136_47# VNB sky130_fd_pr__nfet_01v8 ad=0.097 pd=0.975 as=0.109 ps=1.36 w=0.42 l=0.15
X29 a_193_47# a_27_47# VPWR VPB sky130_fd_pr__pfet_01v8_hvt ad=0.166 pd=1.8 as=0.0864 ps=0.91 w=0.64 l=0.15
X30 VPWR a_941_21# a_1672_329# VPB sky130_fd_pr__pfet_01v8_hvt ad=0.218 pd=2.2 as=0.0882 ps=1.05 w=0.84 l=0.15
X31 VPWR a_1415_315# a_1340_413# VPB sky130_fd_pr__pfet_01v8_hvt ad=0.0956 pd=0.875 as=0.0787 ps=0.795 w=0.42 l=0.15
X32 a_1363_47# a_193_47# a_1256_413# VNB sky130_fd_pr__nfet_01v8 ad=0.066 pd=0.745 as=0.0486 ps=0.63 w=0.36 l=0.15
X33 Q_N a_1415_315# VGND VNB sky130_fd_pr__nfet_01v8 ad=0.169 pd=1.82 as=0.097 ps=0.975 w=0.65 l=0.15
X34 a_381_47# D VGND VNB sky130_fd_pr__nfet_01v8 ad=0.066 pd=0.745 as=0.109 ps=1.36 w=0.42 l=0.15
X35 a_1159_47# a_647_21# VGND VNB sky130_fd_pr__nfet_01v8 ad=0.116 pd=1.09 as=0.166 ps=1.8 w=0.64 l=0.15
X36 a_1672_329# a_1256_413# a_1415_315# VPB sky130_fd_pr__pfet_01v8_hvt ad=0.0882 pd=1.05 as=0.132 ps=1.22 w=0.84 l=0.15
X37 VGND CLK_N a_27_47# VNB sky130_fd_pr__nfet_01v8 ad=0.0567 pd=0.69 as=0.109 ps=1.36 w=0.42 l=0.15
X38 a_1256_413# a_27_47# a_1159_47# VNB sky130_fd_pr__nfet_01v8 ad=0.0486 pd=0.63 as=0.116 ps=1.09 w=0.36 l=0.15
X39 a_1415_315# a_1256_413# a_1555_47# VNB sky130_fd_pr__nfet_01v8 ad=0.0864 pd=0.91 as=0.109 ps=1.03 w=0.64 l=0.15
.ends

.subckt sky130_fd_sc_hd__inv_1 VNB VPB VGND VPWR A Y
X0 Y A VGND VNB sky130_fd_pr__nfet_01v8 ad=0.169 pd=1.82 as=0.169 ps=1.82 w=0.65 l=0.15
X1 Y A VPWR VPB sky130_fd_pr__pfet_01v8_hvt ad=0.26 pd=2.52 as=0.26 ps=2.52 w=1 l=0.15
.ends

.subckt sky130_fd_sc_hd__inv_8 VNB VPB VGND VPWR Y A
X0 VPWR A Y VPB sky130_fd_pr__pfet_01v8_hvt ad=0.135 pd=1.27 as=0.135 ps=1.27 w=1 l=0.15
X1 Y A VPWR VPB sky130_fd_pr__pfet_01v8_hvt ad=0.135 pd=1.27 as=0.135 ps=1.27 w=1 l=0.15
X2 Y A VGND VNB sky130_fd_pr__nfet_01v8 ad=0.0878 pd=0.92 as=0.0878 ps=0.92 w=0.65 l=0.15
X3 Y A VGND VNB sky130_fd_pr__nfet_01v8 ad=0.0878 pd=0.92 as=0.0878 ps=0.92 w=0.65 l=0.15
X4 VPWR A Y VPB sky130_fd_pr__pfet_01v8_hvt ad=0.135 pd=1.27 as=0.135 ps=1.27 w=1 l=0.15
X5 Y A VPWR VPB sky130_fd_pr__pfet_01v8_hvt ad=0.135 pd=1.27 as=0.26 ps=2.52 w=1 l=0.15
X6 Y A VGND VNB sky130_fd_pr__nfet_01v8 ad=0.0878 pd=0.92 as=0.169 ps=1.82 w=0.65 l=0.15
X7 VPWR A Y VPB sky130_fd_pr__pfet_01v8_hvt ad=0.26 pd=2.52 as=0.135 ps=1.27 w=1 l=0.15
X8 Y A VGND VNB sky130_fd_pr__nfet_01v8 ad=0.0878 pd=0.92 as=0.0878 ps=0.92 w=0.65 l=0.15
X9 Y A VPWR VPB sky130_fd_pr__pfet_01v8_hvt ad=0.135 pd=1.27 as=0.135 ps=1.27 w=1 l=0.15
X10 VPWR A Y VPB sky130_fd_pr__pfet_01v8_hvt ad=0.135 pd=1.27 as=0.135 ps=1.27 w=1 l=0.15
X11 VGND A Y VNB sky130_fd_pr__nfet_01v8 ad=0.0878 pd=0.92 as=0.0878 ps=0.92 w=0.65 l=0.15
X12 VGND A Y VNB sky130_fd_pr__nfet_01v8 ad=0.0878 pd=0.92 as=0.0878 ps=0.92 w=0.65 l=0.15
X13 VGND A Y VNB sky130_fd_pr__nfet_01v8 ad=0.0878 pd=0.92 as=0.0878 ps=0.92 w=0.65 l=0.15
X14 Y A VPWR VPB sky130_fd_pr__pfet_01v8_hvt ad=0.135 pd=1.27 as=0.135 ps=1.27 w=1 l=0.15
X15 VGND A Y VNB sky130_fd_pr__nfet_01v8 ad=0.169 pd=1.82 as=0.0878 ps=0.92 w=0.65 l=0.15
.ends

.subckt sky130_fd_sc_hd__nor2_1 VNB VPB VGND VPWR A B Y
X0 VPWR A a_109_297# VPB sky130_fd_pr__pfet_01v8_hvt ad=0.26 pd=2.52 as=0.105 ps=1.21 w=1 l=0.15
X1 VGND A Y VNB sky130_fd_pr__nfet_01v8 ad=0.169 pd=1.82 as=0.0878 ps=0.92 w=0.65 l=0.15
X2 a_109_297# B Y VPB sky130_fd_pr__pfet_01v8_hvt ad=0.105 pd=1.21 as=0.26 ps=2.52 w=1 l=0.15
X3 Y B VGND VNB sky130_fd_pr__nfet_01v8 ad=0.0878 pd=0.92 as=0.169 ps=1.82 w=0.65 l=0.15
.ends

.subckt sky130_fd_sc_hd__inv_4 VNB VPB VPWR VGND Y A
X0 VPWR A Y VPB sky130_fd_pr__pfet_01v8_hvt ad=0.26 pd=2.52 as=0.135 ps=1.27 w=1 l=0.15
X1 Y A VPWR VPB sky130_fd_pr__pfet_01v8_hvt ad=0.135 pd=1.27 as=0.135 ps=1.27 w=1 l=0.15
X2 Y A VGND VNB sky130_fd_pr__nfet_01v8 ad=0.0878 pd=0.92 as=0.169 ps=1.82 w=0.65 l=0.15
X3 VPWR A Y VPB sky130_fd_pr__pfet_01v8_hvt ad=0.135 pd=1.27 as=0.135 ps=1.27 w=1 l=0.15
X4 VGND A Y VNB sky130_fd_pr__nfet_01v8 ad=0.0878 pd=0.92 as=0.0878 ps=0.92 w=0.65 l=0.15
X5 Y A VPWR VPB sky130_fd_pr__pfet_01v8_hvt ad=0.135 pd=1.27 as=0.26 ps=2.52 w=1 l=0.15
X6 VGND A Y VNB sky130_fd_pr__nfet_01v8 ad=0.169 pd=1.82 as=0.0878 ps=0.92 w=0.65 l=0.15
X7 Y A VGND VNB sky130_fd_pr__nfet_01v8 ad=0.0878 pd=0.92 as=0.0878 ps=0.92 w=0.65 l=0.15
.ends

.subckt sky130_fd_sc_hd__inv_2 VNB VPB VPWR VGND Y A
X0 Y A VPWR VPB sky130_fd_pr__pfet_01v8_hvt ad=0.135 pd=1.27 as=0.26 ps=2.52 w=1 l=0.15
X1 VGND A Y VNB sky130_fd_pr__nfet_01v8 ad=0.169 pd=1.82 as=0.0878 ps=0.92 w=0.65 l=0.15
X2 Y A VGND VNB sky130_fd_pr__nfet_01v8 ad=0.0878 pd=0.92 as=0.169 ps=1.82 w=0.65 l=0.15
X3 VPWR A Y VPB sky130_fd_pr__pfet_01v8_hvt ad=0.26 pd=2.52 as=0.135 ps=1.27 w=1 l=0.15
.ends

.subckt sky130_fd_sc_hd__conb_1 VNB VPB VGND VPWR LO HI
R0 VPWR HI sky130_fd_pr__res_generic_po w=0.48 l=0.045
R1 LO VGND sky130_fd_pr__res_generic_po w=0.48 l=0.045
.ends

.subckt sky130_fd_sc_hd__nand3_1 VNB VPB VGND VPWR A B Y C
X0 VPWR B Y VPB sky130_fd_pr__pfet_01v8_hvt ad=0.165 pd=1.33 as=0.135 ps=1.27 w=1 l=0.15
X1 Y A VPWR VPB sky130_fd_pr__pfet_01v8_hvt ad=0.26 pd=2.52 as=0.165 ps=1.33 w=1 l=0.15
X2 a_193_47# B a_109_47# VNB sky130_fd_pr__nfet_01v8 ad=0.107 pd=0.98 as=0.0878 ps=0.92 w=0.65 l=0.15
X3 Y A a_193_47# VNB sky130_fd_pr__nfet_01v8 ad=0.169 pd=1.82 as=0.107 ps=0.98 w=0.65 l=0.15
X4 Y C VPWR VPB sky130_fd_pr__pfet_01v8_hvt ad=0.135 pd=1.27 as=0.26 ps=2.52 w=1 l=0.15
X5 a_109_47# C VGND VNB sky130_fd_pr__nfet_01v8 ad=0.0878 pd=0.92 as=0.169 ps=1.82 w=0.65 l=0.15
.ends

.subckt sky130_fd_sc_hd__nand2_1 VNB VPB VGND VPWR A Y B
X0 VPWR A Y VPB sky130_fd_pr__pfet_01v8_hvt ad=0.26 pd=2.52 as=0.135 ps=1.27 w=1 l=0.15
X1 Y A a_113_47# VNB sky130_fd_pr__nfet_01v8 ad=0.169 pd=1.82 as=0.0878 ps=0.92 w=0.65 l=0.15
X2 a_113_47# B VGND VNB sky130_fd_pr__nfet_01v8 ad=0.0878 pd=0.92 as=0.169 ps=1.82 w=0.65 l=0.15
X3 Y B VPWR VPB sky130_fd_pr__pfet_01v8_hvt ad=0.135 pd=1.27 as=0.26 ps=2.52 w=1 l=0.15
.ends

.subckt CDC CLOCK_GEN.SR_Op.Q FULL_COUNTER.COUNT_SUB_DFF0.Q FULL_COUNTER.COUNT_SUB_DFF10.Q
+ FULL_COUNTER.COUNT_SUB_DFF11.Q FULL_COUNTER.COUNT_SUB_DFF12.Q FULL_COUNTER.COUNT_SUB_DFF13.Q
+ FULL_COUNTER.COUNT_SUB_DFF14.Q FULL_COUNTER.COUNT_SUB_DFF15.Q FULL_COUNTER.COUNT_SUB_DFF16.Q
+ FULL_COUNTER.COUNT_SUB_DFF17.Q FULL_COUNTER.COUNT_SUB_DFF1.Q FULL_COUNTER.COUNT_SUB_DFF2.Q
+ FULL_COUNTER.COUNT_SUB_DFF3.Q FULL_COUNTER.COUNT_SUB_DFF4.Q FULL_COUNTER.COUNT_SUB_DFF5.Q
+ FULL_COUNTER.COUNT_SUB_DFF6.Q FULL_COUNTER.COUNT_SUB_DFF7.Q FULL_COUNTER.COUNT_SUB_DFF8.Q
+ FULL_COUNTER.COUNT_SUB_DFF9.Q RISING_COUNTER.COUNT_SUB_DFF0.Q RISING_COUNTER.COUNT_SUB_DFF10.Q
+ RISING_COUNTER.COUNT_SUB_DFF11.Q RISING_COUNTER.COUNT_SUB_DFF12.Q RISING_COUNTER.COUNT_SUB_DFF13.Q
+ RISING_COUNTER.COUNT_SUB_DFF14.Q RISING_COUNTER.COUNT_SUB_DFF15.Q RISING_COUNTER.COUNT_SUB_DFF1.Q
+ RISING_COUNTER.COUNT_SUB_DFF2.Q RISING_COUNTER.COUNT_SUB_DFF3.Q RISING_COUNTER.COUNT_SUB_DFF4.Q
+ RISING_COUNTER.COUNT_SUB_DFF5.Q RISING_COUNTER.COUNT_SUB_DFF6.Q RISING_COUNTER.COUNT_SUB_DFF7.Q
+ RISING_COUNTER.COUNT_SUB_DFF8.Q RISING_COUNTER.COUNT_SUB_DFF9.Q FALLING_COUNTER.COUNT_SUB_DFF0.Q
+ FALLING_COUNTER.COUNT_SUB_DFF10.Q FALLING_COUNTER.COUNT_SUB_DFF11.Q FALLING_COUNTER.COUNT_SUB_DFF12.Q
+ FALLING_COUNTER.COUNT_SUB_DFF13.Q FALLING_COUNTER.COUNT_SUB_DFF14.Q FALLING_COUNTER.COUNT_SUB_DFF15.Q
+ FALLING_COUNTER.COUNT_SUB_DFF1.Q FALLING_COUNTER.COUNT_SUB_DFF2.Q FALLING_COUNTER.COUNT_SUB_DFF3.Q
+ FALLING_COUNTER.COUNT_SUB_DFF4.Q FALLING_COUNTER.COUNT_SUB_DFF5.Q FALLING_COUNTER.COUNT_SUB_DFF6.Q
+ FALLING_COUNTER.COUNT_SUB_DFF7.Q FALLING_COUNTER.COUNT_SUB_DFF8.Q FALLING_COUNTER.COUNT_SUB_DFF9.Q
+ Reset FULL_COUNTER.COUNT_SUB_DFF18.Q FULL_COUNTER.COUNT_SUB_DFF19.Q V_GND V_HIGH
+ V_SENSE V_LOW
Xsky130_fd_sc_hd__inv_16_3 V_GND V_LOW V_GND V_LOW sky130_fd_sc_hd__inv_16_5/A sky130_fd_sc_hd__inv_16_3/A
+ sky130_fd_sc_hd__inv_16
Xsky130_fd_sc_hd__nand2_8_2 V_GND V_LOW V_GND V_LOW sky130_fd_sc_hd__nand3_1_2/Y CLOCK_GEN.SR_Op.Q
+ sky130_fd_sc_hd__nand2_8_4/Y sky130_fd_sc_hd__nand2_8
Xtransmission_gate_31 Reset V_HIGH V_GND V_SENSE transmission_gate_9/GN transmission_gate
Xtransmission_gate_20 Reset V_HIGH V_GND V_SENSE transmission_gate_9/GN transmission_gate
Xtransmission_gate_75 Reset V_HIGH V_GND V_SENSE transmission_gate_9/GN transmission_gate
Xtransmission_gate_53 Reset V_HIGH V_GND V_SENSE transmission_gate_9/GN transmission_gate
Xtransmission_gate_42 Reset V_HIGH V_GND V_SENSE transmission_gate_9/GN transmission_gate
Xtransmission_gate_64 Reset V_HIGH V_GND V_SENSE transmission_gate_9/GN transmission_gate
Xsky130_fd_sc_hd__decap_4_90 V_GND V_HIGH V_GND V_HIGH sky130_fd_sc_hd__decap_4
Xsky130_fd_sc_hd__dfbbn_1_6 V_GND V_LOW V_GND V_LOW FULL_COUNTER.COUNT_SUB_DFF11.Q
+ sky130_fd_sc_hd__dfbbn_1_6/Q_N sky130_fd_sc_hd__inv_16_40/Y sky130_fd_sc_hd__conb_1_10/HI
+ sky130_fd_sc_hd__inv_1_9/Y FULL_COUNTER.COUNT_SUB_DFF10.Q sky130_fd_sc_hd__dfbbn_1
Xsky130_fd_sc_hd__inv_1_4 V_GND V_LOW V_GND V_LOW FULL_COUNTER.COUNT_SUB_DFF5.Q sky130_fd_sc_hd__inv_1_4/Y
+ sky130_fd_sc_hd__inv_1
Xsky130_fd_sc_hd__inv_1_15 V_GND V_LOW V_GND V_LOW FULL_COUNTER.COUNT_SUB_DFF17.Q
+ sky130_fd_sc_hd__inv_1_15/Y sky130_fd_sc_hd__inv_1
Xsky130_fd_sc_hd__inv_1_48 V_GND V_LOW V_GND V_LOW Reset sky130_fd_sc_hd__inv_1_48/Y
+ sky130_fd_sc_hd__inv_1
Xsky130_fd_sc_hd__inv_1_37 V_GND V_LOW V_GND V_LOW RISING_COUNTER.COUNT_SUB_DFF8.Q
+ sky130_fd_sc_hd__inv_1_37/Y sky130_fd_sc_hd__inv_1
Xsky130_fd_sc_hd__inv_1_26 V_GND V_LOW V_GND V_LOW RISING_COUNTER.COUNT_SUB_DFF14.Q
+ sky130_fd_sc_hd__inv_1_26/Y sky130_fd_sc_hd__inv_1
Xsky130_fd_sc_hd__inv_1_59 V_GND V_LOW V_GND V_LOW FALLING_COUNTER.COUNT_SUB_DFF9.Q
+ sky130_fd_sc_hd__inv_1_59/Y sky130_fd_sc_hd__inv_1
Xsky130_fd_sc_hd__inv_16_4 V_GND V_LOW V_GND V_LOW sky130_fd_sc_hd__inv_16_4/Y sky130_fd_sc_hd__inv_8_0/Y
+ sky130_fd_sc_hd__inv_16
Xsky130_fd_sc_hd__nand2_8_3 V_GND V_LOW V_GND V_LOW sky130_fd_sc_hd__inv_1_67/Y sky130_fd_sc_hd__inv_1_64/A
+ sky130_fd_sc_hd__inv_1_65/A sky130_fd_sc_hd__nand2_8
Xtransmission_gate_32 Reset V_HIGH V_GND V_SENSE transmission_gate_9/GN transmission_gate
Xtransmission_gate_10 Reset V_HIGH V_GND V_SENSE transmission_gate_9/GN transmission_gate
Xtransmission_gate_21 Reset V_HIGH V_GND V_SENSE transmission_gate_9/GN transmission_gate
Xtransmission_gate_43 Reset V_HIGH V_GND V_SENSE transmission_gate_9/GN transmission_gate
Xtransmission_gate_65 Reset V_HIGH V_GND V_SENSE transmission_gate_9/GN transmission_gate
Xtransmission_gate_54 Reset V_HIGH V_GND V_SENSE transmission_gate_9/GN transmission_gate
Xtransmission_gate_76 Reset V_HIGH V_GND V_SENSE transmission_gate_9/GN transmission_gate
Xsky130_fd_sc_hd__decap_4_91 V_GND sky130_fd_sc_hd__fill_8_848/VPB V_GND V_LOW sky130_fd_sc_hd__decap_4
Xsky130_fd_sc_hd__decap_4_80 V_GND sky130_fd_sc_hd__fill_8_949/VPB V_GND V_LOW sky130_fd_sc_hd__decap_4
Xsky130_fd_sc_hd__dfbbn_1_7 V_GND V_LOW V_GND V_LOW FULL_COUNTER.COUNT_SUB_DFF8.Q
+ sky130_fd_sc_hd__dfbbn_1_7/Q_N sky130_fd_sc_hd__inv_16_40/Y sky130_fd_sc_hd__conb_1_5/HI
+ sky130_fd_sc_hd__inv_1_10/Y FULL_COUNTER.COUNT_SUB_DFF7.Q sky130_fd_sc_hd__dfbbn_1
Xsky130_fd_sc_hd__inv_1_5 V_GND V_LOW V_GND V_LOW FULL_COUNTER.COUNT_SUB_DFF13.Q sky130_fd_sc_hd__inv_1_5/Y
+ sky130_fd_sc_hd__inv_1
Xsky130_fd_sc_hd__inv_1_16 V_GND V_LOW V_GND V_LOW FULL_COUNTER.COUNT_SUB_DFF19.Q
+ sky130_fd_sc_hd__inv_1_16/Y sky130_fd_sc_hd__inv_1
Xsky130_fd_sc_hd__inv_1_27 V_GND V_LOW V_GND V_LOW RISING_COUNTER.COUNT_SUB_DFF15.Q
+ sky130_fd_sc_hd__inv_1_27/Y sky130_fd_sc_hd__inv_1
Xsky130_fd_sc_hd__inv_1_49 V_GND V_LOW V_GND V_LOW RISING_COUNTER.COUNT_SUB_DFF2.Q
+ sky130_fd_sc_hd__inv_1_49/Y sky130_fd_sc_hd__inv_1
Xsky130_fd_sc_hd__inv_1_38 V_GND V_LOW V_GND V_LOW RISING_COUNTER.COUNT_SUB_DFF10.Q
+ sky130_fd_sc_hd__inv_1_38/Y sky130_fd_sc_hd__inv_1
Xsky130_fd_sc_hd__inv_16_5 V_GND V_LOW V_GND V_LOW sky130_fd_sc_hd__inv_1_19/A sky130_fd_sc_hd__inv_16_5/A
+ sky130_fd_sc_hd__inv_16
Xsky130_fd_sc_hd__nand2_8_4 V_GND V_LOW V_GND V_LOW sky130_fd_sc_hd__inv_1_48/Y sky130_fd_sc_hd__nand2_8_4/Y
+ CLOCK_GEN.SR_Op.Q sky130_fd_sc_hd__nand2_8
Xtransmission_gate_22 Reset V_HIGH V_GND V_SENSE transmission_gate_9/GN transmission_gate
Xtransmission_gate_11 Reset V_HIGH V_GND V_SENSE transmission_gate_9/GN transmission_gate
Xtransmission_gate_44 Reset V_HIGH V_GND V_SENSE transmission_gate_9/GN transmission_gate
Xtransmission_gate_33 Reset V_HIGH V_GND V_SENSE transmission_gate_9/GN transmission_gate
Xtransmission_gate_55 Reset V_HIGH V_GND V_SENSE transmission_gate_9/GN transmission_gate
Xtransmission_gate_66 Reset V_HIGH V_GND V_SENSE transmission_gate_9/GN transmission_gate
Xtransmission_gate_77 Reset V_HIGH V_GND V_SENSE transmission_gate_9/GN transmission_gate
Xsky130_fd_sc_hd__decap_4_70 V_GND V_HIGH V_GND V_HIGH sky130_fd_sc_hd__decap_4
Xsky130_fd_sc_hd__decap_4_81 V_GND sky130_fd_sc_hd__fill_8_949/VPB V_GND V_LOW sky130_fd_sc_hd__decap_4
Xsky130_fd_sc_hd__decap_4_92 V_GND V_LOW V_GND V_LOW sky130_fd_sc_hd__decap_4
Xsky130_fd_sc_hd__dfbbn_1_8 V_GND V_LOW V_GND V_LOW FULL_COUNTER.COUNT_SUB_DFF12.Q
+ sky130_fd_sc_hd__dfbbn_1_8/Q_N sky130_fd_sc_hd__inv_16_40/Y sky130_fd_sc_hd__conb_1_8/HI
+ sky130_fd_sc_hd__inv_1_8/Y FULL_COUNTER.COUNT_SUB_DFF11.Q sky130_fd_sc_hd__dfbbn_1
Xsky130_fd_sc_hd__inv_1_6 V_GND V_LOW V_GND V_LOW FULL_COUNTER.COUNT_SUB_DFF14.Q sky130_fd_sc_hd__inv_1_6/Y
+ sky130_fd_sc_hd__inv_1
Xsky130_fd_sc_hd__inv_1_17 V_GND V_LOW V_GND V_LOW sky130_fd_sc_hd__inv_1_19/A sky130_fd_sc_hd__inv_1_67/A
+ sky130_fd_sc_hd__inv_1
Xsky130_fd_sc_hd__inv_1_39 V_GND V_LOW V_GND V_LOW RISING_COUNTER.COUNT_SUB_DFF3.Q
+ sky130_fd_sc_hd__inv_1_39/Y sky130_fd_sc_hd__inv_1
Xsky130_fd_sc_hd__inv_1_28 V_GND V_LOW V_GND V_LOW RISING_COUNTER.COUNT_SUB_DFF12.Q
+ sky130_fd_sc_hd__inv_1_28/Y sky130_fd_sc_hd__inv_1
Xsky130_fd_sc_hd__inv_16_6 V_GND V_LOW V_GND V_LOW sky130_fd_sc_hd__inv_16_6/Y sky130_fd_sc_hd__inv_16_6/A
+ sky130_fd_sc_hd__inv_16
Xsky130_fd_sc_hd__nand2_8_5 V_GND V_LOW V_GND V_LOW sky130_fd_sc_hd__inv_1_56/Y sky130_fd_sc_hd__inv_1_53/A
+ sky130_fd_sc_hd__inv_1_52/A sky130_fd_sc_hd__nand2_8
Xsky130_fd_sc_hd__inv_8_0 V_GND V_LOW V_GND V_LOW sky130_fd_sc_hd__inv_8_0/Y sky130_fd_sc_hd__inv_8_0/A
+ sky130_fd_sc_hd__inv_8
Xtransmission_gate_23 Reset V_HIGH V_GND V_SENSE transmission_gate_9/GN transmission_gate
Xtransmission_gate_12 Reset V_HIGH V_GND V_SENSE transmission_gate_9/GN transmission_gate
Xtransmission_gate_45 Reset V_HIGH V_GND V_SENSE transmission_gate_9/GN transmission_gate
Xtransmission_gate_34 Reset V_HIGH V_GND V_SENSE transmission_gate_9/GN transmission_gate
Xtransmission_gate_56 Reset V_HIGH V_GND V_SENSE transmission_gate_9/GN transmission_gate
Xtransmission_gate_67 Reset V_HIGH V_GND V_SENSE transmission_gate_9/GN transmission_gate
Xtransmission_gate_78 Reset V_HIGH V_GND V_SENSE transmission_gate_9/GN transmission_gate
Xsky130_fd_sc_hd__decap_4_60 V_GND sky130_fd_sc_hd__fill_8_848/VPB V_GND V_LOW sky130_fd_sc_hd__decap_4
Xsky130_fd_sc_hd__decap_4_71 V_GND sky130_fd_sc_hd__fill_8_927/VPB V_GND V_LOW sky130_fd_sc_hd__decap_4
Xsky130_fd_sc_hd__decap_4_82 V_GND sky130_fd_sc_hd__fill_8_951/VPB V_GND V_LOW sky130_fd_sc_hd__decap_4
Xsky130_fd_sc_hd__decap_4_93 V_GND V_LOW V_GND V_LOW sky130_fd_sc_hd__decap_4
Xsky130_fd_sc_hd__dfbbn_1_9 V_GND V_LOW V_GND V_LOW FULL_COUNTER.COUNT_SUB_DFF10.Q
+ sky130_fd_sc_hd__dfbbn_1_9/Q_N sky130_fd_sc_hd__inv_16_40/Y sky130_fd_sc_hd__conb_1_6/HI
+ sky130_fd_sc_hd__inv_1_7/Y FULL_COUNTER.COUNT_SUB_DFF9.Q sky130_fd_sc_hd__dfbbn_1
Xsky130_fd_sc_hd__inv_1_7 V_GND V_LOW V_GND V_LOW FULL_COUNTER.COUNT_SUB_DFF10.Q sky130_fd_sc_hd__inv_1_7/Y
+ sky130_fd_sc_hd__inv_1
Xsky130_fd_sc_hd__inv_1_18 V_GND V_LOW V_GND V_LOW sky130_fd_sc_hd__inv_1_18/A sky130_fd_sc_hd__inv_1_18/Y
+ sky130_fd_sc_hd__inv_1
Xsky130_fd_sc_hd__inv_1_29 V_GND V_LOW V_GND V_LOW FALLING_COUNTER.COUNT_SUB_DFF12.Q
+ sky130_fd_sc_hd__inv_1_29/Y sky130_fd_sc_hd__inv_1
Xsky130_fd_sc_hd__inv_16_7 V_GND V_LOW V_GND V_LOW sky130_fd_sc_hd__inv_16_7/Y sky130_fd_sc_hd__inv_16_7/A
+ sky130_fd_sc_hd__inv_16
Xsky130_fd_sc_hd__nand2_8_6 V_GND V_LOW V_GND V_LOW sky130_fd_sc_hd__inv_1_51/Y sky130_fd_sc_hd__inv_1_52/A
+ sky130_fd_sc_hd__inv_1_53/A sky130_fd_sc_hd__nand2_8
Xtransmission_gate_13 Reset V_HIGH V_GND V_SENSE transmission_gate_9/GN transmission_gate
Xtransmission_gate_46 Reset V_HIGH V_GND V_SENSE transmission_gate_9/GN transmission_gate
Xtransmission_gate_24 Reset V_HIGH V_GND V_SENSE transmission_gate_9/GN transmission_gate
Xtransmission_gate_57 Reset V_HIGH V_GND V_SENSE transmission_gate_9/GN transmission_gate
Xtransmission_gate_35 Reset V_HIGH V_GND V_SENSE transmission_gate_9/GN transmission_gate
Xtransmission_gate_79 Reset V_HIGH V_GND V_SENSE transmission_gate_9/GN transmission_gate
Xtransmission_gate_68 Reset V_HIGH V_GND V_SENSE transmission_gate_9/GN transmission_gate
Xsky130_fd_sc_hd__decap_4_50 V_GND V_LOW V_GND V_LOW sky130_fd_sc_hd__decap_4
Xsky130_fd_sc_hd__decap_4_61 V_GND sky130_fd_sc_hd__fill_8_854/VPB V_GND V_LOW sky130_fd_sc_hd__decap_4
Xsky130_fd_sc_hd__decap_4_72 V_GND sky130_fd_sc_hd__fill_8_958/VPB V_GND V_LOW sky130_fd_sc_hd__decap_4
Xsky130_fd_sc_hd__decap_4_83 V_GND sky130_fd_sc_hd__fill_8_951/VPB V_GND V_LOW sky130_fd_sc_hd__decap_4
Xsky130_fd_sc_hd__decap_4_94 V_GND V_LOW V_GND V_LOW sky130_fd_sc_hd__decap_4
Xsky130_fd_sc_hd__inv_1_8 V_GND V_LOW V_GND V_LOW FULL_COUNTER.COUNT_SUB_DFF12.Q sky130_fd_sc_hd__inv_1_8/Y
+ sky130_fd_sc_hd__inv_1
Xsky130_fd_sc_hd__inv_1_19 V_GND V_LOW V_GND V_LOW sky130_fd_sc_hd__inv_1_19/A sky130_fd_sc_hd__inv_1_19/Y
+ sky130_fd_sc_hd__inv_1
Xsky130_fd_sc_hd__inv_16_50 V_GND V_SENSE V_GND V_SENSE sky130_fd_sc_hd__inv_16_50/Y
+ sky130_fd_sc_hd__inv_16_50/A sky130_fd_sc_hd__inv_16
Xsky130_fd_sc_hd__inv_16_8 V_GND V_LOW V_GND V_LOW sky130_fd_sc_hd__inv_16_8/Y sky130_fd_sc_hd__inv_16_8/A
+ sky130_fd_sc_hd__inv_16
Xsky130_fd_sc_hd__nand2_8_7 V_GND V_LOW V_GND V_LOW sky130_fd_sc_hd__inv_1_66/Y sky130_fd_sc_hd__inv_1_65/A
+ sky130_fd_sc_hd__inv_1_64/A sky130_fd_sc_hd__nand2_8
Xtransmission_gate_14 Reset V_HIGH V_GND V_SENSE transmission_gate_9/GN transmission_gate
Xtransmission_gate_47 Reset V_HIGH V_GND V_SENSE transmission_gate_9/GN transmission_gate
Xtransmission_gate_36 Reset V_HIGH V_GND V_SENSE transmission_gate_9/GN transmission_gate
Xtransmission_gate_25 Reset V_HIGH V_GND V_SENSE transmission_gate_9/GN transmission_gate
Xtransmission_gate_58 Reset V_HIGH V_GND V_SENSE transmission_gate_9/GN transmission_gate
Xtransmission_gate_69 Reset V_HIGH V_GND V_SENSE transmission_gate_9/GN transmission_gate
Xsky130_fd_sc_hd__decap_4_51 V_GND sky130_fd_sc_hd__fill_8_858/VPB V_GND V_LOW sky130_fd_sc_hd__decap_4
Xsky130_fd_sc_hd__decap_4_40 V_GND V_LOW V_GND V_LOW sky130_fd_sc_hd__decap_4
Xsky130_fd_sc_hd__decap_4_62 V_GND sky130_fd_sc_hd__fill_8_858/VPB V_GND V_LOW sky130_fd_sc_hd__decap_4
Xsky130_fd_sc_hd__decap_4_73 V_GND sky130_fd_sc_hd__fill_8_927/VPB V_GND V_LOW sky130_fd_sc_hd__decap_4
Xsky130_fd_sc_hd__decap_4_84 V_GND sky130_fd_sc_hd__fill_8_949/VPB V_GND V_LOW sky130_fd_sc_hd__decap_4
Xsky130_fd_sc_hd__decap_4_95 V_GND V_LOW V_GND V_LOW sky130_fd_sc_hd__decap_4
Xsky130_fd_sc_hd__inv_1_9 V_GND V_LOW V_GND V_LOW FULL_COUNTER.COUNT_SUB_DFF11.Q sky130_fd_sc_hd__inv_1_9/Y
+ sky130_fd_sc_hd__inv_1
Xsky130_fd_sc_hd__nor2_1_0 V_GND V_LOW V_GND V_LOW Reset CLOCK_GEN.SR_Op.Q sky130_fd_sc_hd__nor2_1_0/Y
+ sky130_fd_sc_hd__nor2_1
Xsky130_fd_sc_hd__inv_16_40 V_GND V_LOW V_GND V_LOW sky130_fd_sc_hd__inv_16_40/Y Reset
+ sky130_fd_sc_hd__inv_16
Xsky130_fd_sc_hd__inv_16_51 V_GND V_SENSE V_GND V_SENSE sky130_fd_sc_hd__inv_16_51/Y
+ sky130_fd_sc_hd__inv_16_51/A sky130_fd_sc_hd__inv_16
Xsky130_fd_sc_hd__inv_16_9 V_GND V_LOW V_GND V_LOW sky130_fd_sc_hd__inv_16_9/Y sky130_fd_sc_hd__inv_16_9/A
+ sky130_fd_sc_hd__inv_16
Xsky130_fd_sc_hd__nand2_8_8 V_GND V_LOW V_GND V_LOW sky130_fd_sc_hd__nand2_8_8/A sky130_fd_sc_hd__inv_1_47/A
+ sky130_fd_sc_hd__nand2_8_9/Y sky130_fd_sc_hd__nand2_8
Xtransmission_gate_37 Reset V_HIGH V_GND V_SENSE transmission_gate_9/GN transmission_gate
Xtransmission_gate_26 Reset V_HIGH V_GND V_SENSE transmission_gate_9/GN transmission_gate
Xtransmission_gate_15 Reset V_HIGH V_GND V_SENSE transmission_gate_9/GN transmission_gate
Xtransmission_gate_48 Reset V_HIGH V_GND V_SENSE transmission_gate_9/GN transmission_gate
Xtransmission_gate_59 Reset V_HIGH V_GND V_SENSE transmission_gate_9/GN transmission_gate
Xsky130_fd_sc_hd__decap_4_30 V_GND V_LOW V_GND V_LOW sky130_fd_sc_hd__decap_4