* NGSPICE file created from CDC.ext - technology: sky130A

.subckt sky130_fd_sc_hd__nand2_8 VNB VPB VGND VPWR A Y B a_27_47#
X0 a_27_47# B VGND VNB sky130_fd_pr__nfet_01v8 ad=0.0878 pd=0.92 as=0.0878 ps=0.92 w=0.65 l=0.15
X1 Y A VPWR VPB sky130_fd_pr__pfet_01v8_hvt ad=0.135 pd=1.27 as=0.135 ps=1.27 w=1 l=0.15
X2 a_27_47# B VGND VNB sky130_fd_pr__nfet_01v8 ad=0.0878 pd=0.92 as=0.0878 ps=0.92 w=0.65 l=0.15
X3 a_27_47# A Y VNB sky130_fd_pr__nfet_01v8 ad=0.0878 pd=0.92 as=0.0878 ps=0.92 w=0.65 l=0.15
X4 a_27_47# A Y VNB sky130_fd_pr__nfet_01v8 ad=0.0878 pd=0.92 as=0.0878 ps=0.92 w=0.65 l=0.15
X5 Y B VPWR VPB sky130_fd_pr__pfet_01v8_hvt ad=0.135 pd=1.27 as=0.135 ps=1.27 w=1 l=0.15
X6 VPWR B Y VPB sky130_fd_pr__pfet_01v8_hvt ad=0.135 pd=1.27 as=0.135 ps=1.27 w=1 l=0.15
X7 Y A a_27_47# VNB sky130_fd_pr__nfet_01v8 ad=0.0878 pd=0.92 as=0.0878 ps=0.92 w=0.65 l=0.15
X8 Y A a_27_47# VNB sky130_fd_pr__nfet_01v8 ad=0.0878 pd=0.92 as=0.0878 ps=0.92 w=0.65 l=0.15
X9 Y A a_27_47# VNB sky130_fd_pr__nfet_01v8 ad=0.0878 pd=0.92 as=0.0878 ps=0.92 w=0.65 l=0.15
X10 Y B VPWR VPB sky130_fd_pr__pfet_01v8_hvt ad=0.135 pd=1.27 as=0.135 ps=1.27 w=1 l=0.15
X11 VPWR A Y VPB sky130_fd_pr__pfet_01v8_hvt ad=0.135 pd=1.27 as=0.135 ps=1.27 w=1 l=0.15
X12 Y A VPWR VPB sky130_fd_pr__pfet_01v8_hvt ad=0.135 pd=1.27 as=0.135 ps=1.27 w=1 l=0.15
X13 VPWR B Y VPB sky130_fd_pr__pfet_01v8_hvt ad=0.135 pd=1.27 as=0.135 ps=1.27 w=1 l=0.15
X14 VPWR A Y VPB sky130_fd_pr__pfet_01v8_hvt ad=0.135 pd=1.27 as=0.135 ps=1.27 w=1 l=0.15
X15 a_27_47# B VGND VNB sky130_fd_pr__nfet_01v8 ad=0.0878 pd=0.92 as=0.0878 ps=0.92 w=0.65 l=0.15
X16 a_27_47# B VGND VNB sky130_fd_pr__nfet_01v8 ad=0.0878 pd=0.92 as=0.0878 ps=0.92 w=0.65 l=0.15
X17 a_27_47# A Y VNB sky130_fd_pr__nfet_01v8 ad=0.247 pd=2.06 as=0.0878 ps=0.92 w=0.65 l=0.15
X18 Y A VPWR VPB sky130_fd_pr__pfet_01v8_hvt ad=0.135 pd=1.27 as=0.135 ps=1.27 w=1 l=0.15
X19 VPWR B Y VPB sky130_fd_pr__pfet_01v8_hvt ad=0.135 pd=1.27 as=0.135 ps=1.27 w=1 l=0.15
X20 VGND B a_27_47# VNB sky130_fd_pr__nfet_01v8 ad=0.0878 pd=0.92 as=0.0878 ps=0.92 w=0.65 l=0.15
X21 VGND B a_27_47# VNB sky130_fd_pr__nfet_01v8 ad=0.0878 pd=0.92 as=0.0878 ps=0.92 w=0.65 l=0.15
X22 Y B VPWR VPB sky130_fd_pr__pfet_01v8_hvt ad=0.135 pd=1.27 as=0.135 ps=1.27 w=1 l=0.15
X23 VPWR A Y VPB sky130_fd_pr__pfet_01v8_hvt ad=0.38 pd=2.76 as=0.135 ps=1.27 w=1 l=0.15
X24 VGND B a_27_47# VNB sky130_fd_pr__nfet_01v8 ad=0.0878 pd=0.92 as=0.0878 ps=0.92 w=0.65 l=0.15
X25 Y A a_27_47# VNB sky130_fd_pr__nfet_01v8 ad=0.0878 pd=0.92 as=0.0878 ps=0.92 w=0.65 l=0.15
X26 VPWR B Y VPB sky130_fd_pr__pfet_01v8_hvt ad=0.135 pd=1.27 as=0.135 ps=1.27 w=1 l=0.15
X27 Y A VPWR VPB sky130_fd_pr__pfet_01v8_hvt ad=0.135 pd=1.27 as=0.135 ps=1.27 w=1 l=0.15
X28 Y B VPWR VPB sky130_fd_pr__pfet_01v8_hvt ad=0.135 pd=1.27 as=0.26 ps=2.52 w=1 l=0.15
X29 VPWR A Y VPB sky130_fd_pr__pfet_01v8_hvt ad=0.135 pd=1.27 as=0.135 ps=1.27 w=1 l=0.15
X30 VGND B a_27_47# VNB sky130_fd_pr__nfet_01v8 ad=0.0878 pd=0.92 as=0.169 ps=1.82 w=0.65 l=0.15
X31 a_27_47# A Y VNB sky130_fd_pr__nfet_01v8 ad=0.0878 pd=0.92 as=0.0878 ps=0.92 w=0.65 l=0.15
C0 B A 0.051f
C1 B VGND 0.108f
C2 B VPWR 0.118f
C3 B a_27_47# 0.369f
C4 B Y 0.413f
C5 VPB A 0.247f
C6 VPB VGND 0.0101f
C7 VPB VPWR 0.157f
C8 VPB a_27_47# 0.00278f
C9 VPB Y 0.0366f
C10 A VGND 0.0645f
C11 A VPWR 0.129f
C12 A a_27_47# 0.0695f
C13 VPB B 0.248f
C14 VPWR VGND 0.149f
C15 A Y 0.644f
C16 VGND a_27_47# 0.947f
C17 VPWR a_27_47# 0.0392f
C18 Y VGND 0.0559f
C19 VPWR Y 1.49f
C20 Y a_27_47# 0.337f
C21 VGND VNB 0.797f
C22 Y VNB 0.0446f
C23 VPWR VNB 0.753f
C24 A VNB 0.746f
C25 B VNB 0.758f
C26 VPB VNB 1.49f
C27 a_27_47# VNB 0.083f
.ends

.subckt sky130_fd_sc_hd__decap_4 VNB VPB VGND VPWR
X0 VPWR VGND VPWR VPB sky130_fd_pr__pfet_01v8_hvt ad=0.226 pd=2.26 as=0.452 ps=4.52 w=0.87 l=1.05
X1 VGND VPWR VGND VNB sky130_fd_pr__nfet_01v8 ad=0.143 pd=1.62 as=0.286 ps=3.24 w=0.55 l=1.05
C0 VPB VGND 0.116f
C1 VPB VPWR 0.0787f
C2 VGND VPWR 0.546f
C3 VPWR VNB 0.619f
C4 VGND VNB 0.554f
C5 VPB VNB 0.428f
.ends

.subckt sky130_fd_sc_hd__dfbbn_1 VNB VPB VGND VPWR Q Q_N RESET_B SET_B D CLK_N a_2136_47#
+ a_791_47# a_647_21# a_891_329# a_1363_47# a_557_413# a_941_21# a_1415_315# a_473_413#
+ a_193_47# a_381_47# a_1112_329# a_1555_47# a_581_47# a_1340_413# a_1159_47# a_1256_413#
+ a_1672_329# a_27_47#
X0 a_791_47# SET_B VGND VNB sky130_fd_pr__nfet_01v8 ad=0.0974 pd=0.97 as=0.0882 ps=0.84 w=0.42 l=0.15
X1 a_1555_47# SET_B VGND VNB sky130_fd_pr__nfet_01v8 ad=0.109 pd=1.03 as=0.0703 ps=0.755 w=0.42 l=0.15
X2 VPWR RESET_B a_941_21# VPB sky130_fd_pr__pfet_01v8_hvt ad=0.154 pd=1.34 as=0.17 ps=1.81 w=0.64 l=0.15
X3 a_1415_315# SET_B VPWR VPB sky130_fd_pr__pfet_01v8_hvt ad=0.132 pd=1.22 as=0.0956 ps=0.875 w=0.42 l=0.15
X4 a_791_47# a_941_21# a_647_21# VNB sky130_fd_pr__nfet_01v8 ad=0.166 pd=1.8 as=0.0864 ps=0.91 w=0.64 l=0.15
X5 VGND a_1415_315# a_1363_47# VNB sky130_fd_pr__nfet_01v8 ad=0.0703 pd=0.755 as=0.066 ps=0.745 w=0.42 l=0.15
X6 a_1340_413# a_27_47# a_1256_413# VPB sky130_fd_pr__pfet_01v8_hvt ad=0.0787 pd=0.795 as=0.0567 ps=0.69 w=0.42 l=0.15
X7 VPWR CLK_N a_27_47# VPB sky130_fd_pr__pfet_01v8_hvt ad=0.0864 pd=0.91 as=0.166 ps=1.8 w=0.64 l=0.15
X8 a_381_47# D VPWR VPB sky130_fd_pr__pfet_01v8_hvt ad=0.0651 pd=0.73 as=0.109 ps=1.36 w=0.42 l=0.15
X9 a_473_413# a_193_47# a_381_47# VNB sky130_fd_pr__nfet_01v8 ad=0.0675 pd=0.735 as=0.066 ps=0.745 w=0.36 l=0.15
X10 a_1555_47# a_941_21# a_1415_315# VNB sky130_fd_pr__nfet_01v8 ad=0.166 pd=1.8 as=0.0864 ps=0.91 w=0.64 l=0.15
X11 VPWR a_1415_315# a_2136_47# VPB sky130_fd_pr__pfet_01v8_hvt ad=0.149 pd=1.33 as=0.166 ps=1.8 w=0.64 l=0.15
X12 a_1256_413# a_193_47# a_1112_329# VPB sky130_fd_pr__pfet_01v8_hvt ad=0.0567 pd=0.69 as=0.174 ps=1.41 w=0.42 l=0.15
X13 a_581_47# a_27_47# a_473_413# VNB sky130_fd_pr__nfet_01v8 ad=0.0671 pd=0.75 as=0.0675 ps=0.735 w=0.36 l=0.15
X14 a_647_21# a_473_413# a_791_47# VNB sky130_fd_pr__nfet_01v8 ad=0.0864 pd=0.91 as=0.0974 ps=0.97 w=0.64 l=0.15
X15 a_647_21# SET_B VPWR VPB sky130_fd_pr__pfet_01v8_hvt ad=0.147 pd=1.23 as=0.0798 ps=0.8 w=0.42 l=0.15
X16 VPWR a_941_21# a_891_329# VPB sky130_fd_pr__pfet_01v8_hvt ad=0.225 pd=1.38 as=0.113 ps=1.11 w=0.84 l=0.15
X17 a_557_413# a_193_47# a_473_413# VPB sky130_fd_pr__pfet_01v8_hvt ad=0.0945 pd=0.87 as=0.0567 ps=0.69 w=0.42 l=0.15
X18 a_193_47# a_27_47# VGND VNB sky130_fd_pr__nfet_01v8 ad=0.109 pd=1.36 as=0.0567 ps=0.69 w=0.42 l=0.15
X19 Q a_2136_47# VPWR VPB sky130_fd_pr__pfet_01v8_hvt ad=0.26 pd=2.52 as=0.149 ps=1.33 w=1 l=0.15
X20 a_473_413# a_27_47# a_381_47# VPB sky130_fd_pr__pfet_01v8_hvt ad=0.0567 pd=0.69 as=0.0651 ps=0.73 w=0.42 l=0.15
X21 a_891_329# a_473_413# a_647_21# VPB sky130_fd_pr__pfet_01v8_hvt ad=0.113 pd=1.11 as=0.147 ps=1.23 w=0.84 l=0.15
X22 Q_N a_1415_315# VPWR VPB sky130_fd_pr__pfet_01v8_hvt ad=0.26 pd=2.52 as=0.154 ps=1.34 w=1 l=0.15
X23 VGND RESET_B a_941_21# VNB sky130_fd_pr__nfet_01v8 ad=0.097 pd=0.975 as=0.109 ps=1.36 w=0.42 l=0.15
X24 Q a_2136_47# VGND VNB sky130_fd_pr__nfet_01v8 ad=0.169 pd=1.82 as=0.097 ps=0.975 w=0.65 l=0.15
X25 VPWR a_647_21# a_557_413# VPB sky130_fd_pr__pfet_01v8_hvt ad=0.0798 pd=0.8 as=0.0945 ps=0.87 w=0.42 l=0.15
X26 a_1112_329# a_647_21# VPWR VPB sky130_fd_pr__pfet_01v8_hvt ad=0.174 pd=1.41 as=0.225 ps=1.38 w=0.84 l=0.15
X27 VGND a_647_21# a_581_47# VNB sky130_fd_pr__nfet_01v8 ad=0.0882 pd=0.84 as=0.0671 ps=0.75 w=0.42 l=0.15
X28 VGND a_1415_315# a_2136_47# VNB sky130_fd_pr__nfet_01v8 ad=0.097 pd=0.975 as=0.109 ps=1.36 w=0.42 l=0.15
X29 a_193_47# a_27_47# VPWR VPB sky130_fd_pr__pfet_01v8_hvt ad=0.166 pd=1.8 as=0.0864 ps=0.91 w=0.64 l=0.15
X30 VPWR a_941_21# a_1672_329# VPB sky130_fd_pr__pfet_01v8_hvt ad=0.218 pd=2.2 as=0.0882 ps=1.05 w=0.84 l=0.15
X31 VPWR a_1415_315# a_1340_413# VPB sky130_fd_pr__pfet_01v8_hvt ad=0.0956 pd=0.875 as=0.0787 ps=0.795 w=0.42 l=0.15
X32 a_1363_47# a_193_47# a_1256_413# VNB sky130_fd_pr__nfet_01v8 ad=0.066 pd=0.745 as=0.0486 ps=0.63 w=0.36 l=0.15
X33 Q_N a_1415_315# VGND VNB sky130_fd_pr__nfet_01v8 ad=0.169 pd=1.82 as=0.097 ps=0.975 w=0.65 l=0.15
X34 a_381_47# D VGND VNB sky130_fd_pr__nfet_01v8 ad=0.066 pd=0.745 as=0.109 ps=1.36 w=0.42 l=0.15
X35 a_1159_47# a_647_21# VGND VNB sky130_fd_pr__nfet_01v8 ad=0.116 pd=1.09 as=0.166 ps=1.8 w=0.64 l=0.15
X36 a_1672_329# a_1256_413# a_1415_315# VPB sky130_fd_pr__pfet_01v8_hvt ad=0.0882 pd=1.05 as=0.132 ps=1.22 w=0.84 l=0.15
X37 VGND CLK_N a_27_47# VNB sky130_fd_pr__nfet_01v8 ad=0.0567 pd=0.69 as=0.109 ps=1.36 w=0.42 l=0.15
X38 a_1256_413# a_27_47# a_1159_47# VNB sky130_fd_pr__nfet_01v8 ad=0.0486 pd=0.63 as=0.116 ps=1.09 w=0.36 l=0.15
X39 a_1415_315# a_1256_413# a_1555_47# VNB sky130_fd_pr__nfet_01v8 ad=0.0864 pd=0.91 as=0.109 ps=1.03 w=0.64 l=0.15
C0 a_27_47# a_791_47# 0.00134f
C1 a_473_413# VPWR 0.108f
C2 a_941_21# D 1.12e-19
C3 a_27_47# D 0.11f
C4 Q a_2136_47# 0.0721f
C5 VPB D 0.0817f
C6 a_381_47# D 0.148f
C7 a_647_21# a_891_329# 0.0104f
C8 a_1256_413# VPWR 0.12f
C9 a_193_47# Q 5.52e-20
C10 SET_B a_1363_47# 7.87e-19
C11 a_647_21# a_473_413# 0.206f
C12 a_473_413# VGND 0.147f
C13 a_941_21# VPWR 0.197f
C14 a_27_47# a_581_47# 0.00206f
C15 VPWR a_27_47# 0.146f
C16 VPWR VPB 0.255f
C17 a_381_47# a_581_47# 3.81e-19
C18 VPWR a_381_47# 0.0894f
C19 a_647_21# a_1256_413# 0.00189f
C20 a_193_47# a_1112_329# 0.00907f
C21 a_1256_413# a_1159_47# 0.00386f
C22 a_1256_413# VGND 0.127f
C23 a_647_21# a_941_21# 0.199f
C24 a_647_21# a_27_47# 0.15f
C25 a_941_21# a_1159_47# 3.73e-19
C26 a_1415_315# VPWR 0.315f
C27 a_473_413# RESET_B 7.48e-21
C28 a_941_21# VGND 0.134f
C29 a_27_47# a_1159_47# 0.00272f
C30 VGND a_27_47# 0.292f
C31 a_647_21# VPB 0.141f
C32 a_1555_47# a_1363_47# 4.19e-20
C33 VPWR CLK_N 0.0196f
C34 VGND VPB 0.0151f
C35 a_647_21# a_381_47# 8.07e-20
C36 VGND a_381_47# 0.0775f
C37 a_557_413# VPWR 0.0042f
C38 a_473_413# SET_B 0.14f
C39 a_1256_413# RESET_B 4.43e-20
C40 a_941_21# a_1672_329# 0.0016f
C41 a_941_21# RESET_B 0.105f
C42 RESET_B a_27_47# 2.12e-19
C43 a_1415_315# VGND 0.0797f
C44 RESET_B VPB 0.0476f
C45 VGND CLK_N 0.0196f
C46 VPWR D 0.0153f
C47 a_647_21# a_557_413# 6.69e-20
C48 a_193_47# a_891_329# 0.00276f
C49 a_1256_413# SET_B 0.177f
C50 RESET_B a_381_47# 3.34e-21
C51 a_193_47# a_473_413# 0.15f
C52 a_941_21# SET_B 0.096f
C53 SET_B a_27_47# 0.309f
C54 a_1256_413# Q_N 1e-20
C55 SET_B VPB 0.147f
C56 a_941_21# Q_N 0.0054f
C57 a_1415_315# a_1672_329# 0.00869f
C58 a_1415_315# RESET_B 0.0851f
C59 a_647_21# a_791_47# 0.0697f
C60 a_941_21# a_2136_47# 5.84e-19
C61 Q_N a_27_47# 4.78e-20
C62 a_27_47# a_2136_47# 1.76e-19
C63 a_791_47# a_1159_47# 3.34e-19
C64 VGND a_791_47# 0.164f
C65 a_2136_47# VPB 0.0467f
C66 Q_N VPB 0.0102f
C67 VGND D 0.0134f
C68 a_193_47# a_1256_413# 0.0334f
C69 a_193_47# a_941_21# 0.126f
C70 a_193_47# a_27_47# 0.798f
C71 a_1415_315# SET_B 0.141f
C72 a_1256_413# a_1555_47# 0.0256f
C73 a_193_47# VPB 0.198f
C74 a_193_47# a_381_47# 0.189f
C75 a_1415_315# a_2136_47# 0.0967f
C76 a_941_21# a_1555_47# 0.0526f
C77 a_1415_315# Q_N 0.121f
C78 a_647_21# VPWR 0.16f
C79 a_941_21# Q 1.7e-19
C80 Q a_27_47# 2.71e-20
C81 VGND a_581_47# 0.0017f
C82 VPWR a_1159_47# 6.2e-19
C83 VPWR VGND 0.0801f
C84 a_1555_47# VPB 8.96e-20
C85 Q VPB 0.0123f
C86 a_193_47# a_1415_315# 0.0494f
C87 a_1256_413# a_1112_329# 0.00412f
C88 a_193_47# CLK_N 7.87e-19
C89 a_1256_413# a_1363_47# 0.00707f
C90 SET_B a_791_47# 0.03f
C91 a_193_47# a_557_413# 0.0018f
C92 a_941_21# a_1112_329# 0.00652f
C93 a_1112_329# a_27_47# 1.09e-19
C94 a_647_21# a_1159_47# 9.75e-19
C95 a_941_21# a_1363_47# 1.96e-20
C96 a_647_21# VGND 0.053f
C97 a_1415_315# a_1555_47# 0.0383f
C98 a_1415_315# Q 0.00311f
C99 VPWR a_1672_329# 0.00438f
C100 VPWR RESET_B 0.0099f
C101 VGND a_1159_47# 0.0108f
C102 a_1256_413# a_1340_413# 0.00857f
C103 a_193_47# a_791_47# 6.04e-20
C104 a_193_47# D 0.0986f
C105 SET_B VPWR 0.0255f
C106 a_941_21# a_1340_413# 9.41e-19
C107 a_1340_413# a_27_47# 2.13e-19
C108 a_647_21# RESET_B 6.51e-21
C109 VPWR a_2136_47# 0.139f
C110 VPWR Q_N 0.0614f
C111 VGND RESET_B 0.0282f
C112 a_941_21# a_891_329# 1.21e-20
C113 a_891_329# a_27_47# 2.46e-19
C114 a_647_21# SET_B 0.175f
C115 a_193_47# VPWR 0.443f
C116 SET_B a_1159_47# 0.00459f
C117 SET_B VGND 0.311f
C118 a_473_413# a_941_21# 0.0633f
C119 a_473_413# a_27_47# 0.159f
C120 a_473_413# VPB 0.0627f
C121 a_791_47# a_1363_47# 2.46e-21
C122 VGND Q_N 0.0862f
C123 VGND a_2136_47# 0.114f
C124 VPWR a_1555_47# 1.3e-19
C125 VPWR Q 0.0992f
C126 a_473_413# a_381_47# 0.0369f
C127 a_193_47# a_647_21# 0.117f
C128 a_941_21# a_1256_413# 0.13f
C129 a_1256_413# a_27_47# 0.14f
C130 a_193_47# a_1159_47# 2.14e-20
C131 a_193_47# VGND 0.0661f
C132 a_1256_413# VPB 0.0597f
C133 SET_B RESET_B 0.00229f
C134 a_473_413# a_1415_315# 4.59e-22
C135 a_941_21# a_27_47# 0.14f
C136 a_941_21# VPB 0.142f
C137 a_1112_329# VPWR 0.0164f
C138 a_27_47# VPB 0.224f
C139 Q_N a_1672_329# 2.1e-20
C140 RESET_B a_2136_47# 4.99e-19
C141 RESET_B Q_N 0.0017f
C142 VGND a_1555_47# 0.157f
C143 VGND Q 0.0643f
C144 a_941_21# a_381_47# 3.79e-20
C145 a_381_47# a_27_47# 0.0456f
C146 a_473_413# a_557_413# 0.00972f
C147 a_381_47# VPB 0.0197f
C148 a_1415_315# a_1256_413# 0.207f
C149 a_193_47# a_1672_329# 7.17e-20
C150 a_193_47# RESET_B 6.8e-20
C151 SET_B a_2136_47# 3.22e-19
C152 SET_B Q_N 3.72e-19
C153 a_1415_315# a_27_47# 0.0321f
C154 a_941_21# a_1415_315# 0.267f
C155 a_647_21# a_1112_329# 9.46e-19
C156 a_473_413# a_791_47# 0.025f
C157 a_1340_413# VPWR 0.00281f
C158 a_1112_329# VGND 3.84e-19
C159 a_941_21# CLK_N 5.45e-20
C160 a_473_413# D 1.43e-19
C161 a_27_47# CLK_N 0.212f
C162 a_1415_315# VPB 0.242f
C163 Q_N a_2136_47# 0.175f
C164 VGND a_1363_47# 0.00192f
C165 RESET_B a_1555_47# 3.78e-20
C166 RESET_B Q 6.25e-20
C167 VPB CLK_N 0.0706f
C168 a_557_413# a_27_47# 4.45e-20
C169 a_193_47# SET_B 0.0123f
C170 a_557_413# a_381_47# 8.99e-19
C171 a_193_47# a_2136_47# 1.03e-19
C172 a_1256_413# a_791_47# 0.00316f
C173 a_193_47# Q_N 1.07e-19
C174 a_891_329# VPWR 0.00984f
C175 SET_B a_1555_47# 0.0131f
C176 SET_B Q 1.24e-19
C177 a_941_21# a_791_47# 0.00926f
C178 a_473_413# a_581_47# 0.00807f
C179 Q VNB 0.0945f
C180 Q_N VNB 0.0135f
C181 RESET_B VNB 0.133f
C182 VGND VNB 1.3f
C183 VPWR VNB 1.05f
C184 SET_B VNB 0.264f
C185 D VNB 0.125f
C186 CLK_N VNB 0.197f
C187 VPB VNB 2.38f
C188 a_1555_47# VNB 0.00871f
C189 a_2136_47# VNB 0.133f
C190 a_791_47# VNB 0.0125f
C191 a_381_47# VNB 0.0218f
C192 a_1256_413# VNB 0.12f
C193 a_1415_315# VNB 0.394f
C194 a_941_21# VNB 0.245f
C195 a_473_413# VNB 0.119f
C196 a_647_21# VNB 0.24f
C197 a_193_47# VNB 0.27f
C198 a_27_47# VNB 0.492f
.ends

.subckt sky130_fd_sc_hd__inv_1 VNB VPB VGND VPWR A Y
X0 Y A VGND VNB sky130_fd_pr__nfet_01v8 ad=0.169 pd=1.82 as=0.169 ps=1.82 w=0.65 l=0.15
X1 Y A VPWR VPB sky130_fd_pr__pfet_01v8_hvt ad=0.26 pd=2.52 as=0.26 ps=2.52 w=1 l=0.15
C0 Y VGND 0.0998f
C1 VPB A 0.0451f
C2 VPB VPWR 0.0545f
C3 A VPWR 0.037f
C4 VPB Y 0.0177f
C5 VPB VGND 0.00948f
C6 A Y 0.0476f
C7 A VGND 0.04f
C8 VPWR Y 0.128f
C9 VPWR VGND 0.0338f
C10 VGND VNB 0.251f
C11 Y VNB 0.0961f
C12 VPWR VNB 0.219f
C13 A VNB 0.167f
C14 VPB VNB 0.339f
.ends

.subckt sky130_fd_sc_hd__nor2_1 VNB VPB VGND VPWR A B Y a_109_297#
X0 VPWR A a_109_297# VPB sky130_fd_pr__pfet_01v8_hvt ad=0.26 pd=2.52 as=0.105 ps=1.21 w=1 l=0.15
X1 VGND A Y VNB sky130_fd_pr__nfet_01v8 ad=0.169 pd=1.82 as=0.0878 ps=0.92 w=0.65 l=0.15
X2 a_109_297# B Y VPB sky130_fd_pr__pfet_01v8_hvt ad=0.105 pd=1.21 as=0.26 ps=2.52 w=1 l=0.15
X3 Y B VGND VNB sky130_fd_pr__nfet_01v8 ad=0.0878 pd=0.92 as=0.169 ps=1.82 w=0.65 l=0.15
C0 A Y 0.0471f
C1 VPWR a_109_297# 0.00638f
C2 VGND a_109_297# 0.00128f
C3 VGND VPWR 0.0314f
C4 VPB VPWR 0.0449f
C5 B VPWR 0.0148f
C6 VGND VPB 0.00456f
C7 A VPWR 0.0528f
C8 Y a_109_297# 0.0113f
C9 VGND B 0.0451f
C10 Y VPWR 0.0995f
C11 VPB B 0.0367f
C12 VGND A 0.0486f
C13 VPB A 0.0415f
C14 VGND Y 0.154f
C15 B A 0.0584f
C16 VPB Y 0.0139f
C17 B Y 0.0877f
C18 VGND VNB 0.263f
C19 VPWR VNB 0.214f
C20 Y VNB 0.0605f
C21 A VNB 0.149f
C22 B VNB 0.143f
C23 VPB VNB 0.339f
.ends

.subckt sky130_fd_sc_hd__inv_2 VNB VPB VPWR VGND Y A
X0 Y A VPWR VPB sky130_fd_pr__pfet_01v8_hvt ad=0.135 pd=1.27 as=0.26 ps=2.52 w=1 l=0.15
X1 VGND A Y VNB sky130_fd_pr__nfet_01v8 ad=0.169 pd=1.82 as=0.0878 ps=0.92 w=0.65 l=0.15
X2 Y A VGND VNB sky130_fd_pr__nfet_01v8 ad=0.0878 pd=0.92 as=0.169 ps=1.82 w=0.65 l=0.15
X3 VPWR A Y VPB sky130_fd_pr__pfet_01v8_hvt ad=0.26 pd=2.52 as=0.135 ps=1.27 w=1 l=0.15
C0 A Y 0.0894f
C1 VPB VGND 0.00649f
C2 VGND VPWR 0.0423f
C3 A VGND 0.0638f
C4 Y VGND 0.155f
C5 VPB VPWR 0.0521f
C6 VPB A 0.0742f
C7 A VPWR 0.0631f
C8 VPB Y 0.0061f
C9 Y VPWR 0.209f
C10 VGND VNB 0.266f
C11 Y VNB 0.0332f
C12 VPWR VNB 0.246f
C13 A VNB 0.263f
C14 VPB VNB 0.339f
.ends

.subckt transmission_gate G VPWR VGND O GN
X0 O G VPWR VGND sky130_fd_pr__nfet_01v8 ad=0.226 pd=1.92 as=0.226 ps=1.92 w=0.55 l=0.15
X1 O GN VPWR VPWR sky130_fd_pr__pfet_01v8 ad=0.226 pd=1.92 as=0.226 ps=1.92 w=0.55 l=0.15
C0 VPWR GN 0.231f
C1 VPWR G 0.0852f
C2 VPWR O 0.145f
C3 GN G 0.0448f
C4 GN O 0.0144f
C5 O G 0.0806f
C6 G VGND 0.207f
C7 O VGND 0.14f
C8 GN VGND 0.0973f
C9 VPWR VGND 1.14f
.ends

.subckt sky130_fd_sc_hd__conb_1 VNB VPB VGND VPWR LO HI
R0 VPWR HI sky130_fd_pr__res_generic_po w=0.48 l=0.045
R1 LO VGND sky130_fd_pr__res_generic_po w=0.48 l=0.045
C0 VPB LO 0.134f
C1 VPWR HI 0.0726f
C2 VGND HI 0.207f
C3 VGND VPWR 0.0317f
C4 LO HI 0.0683f
C5 LO VPWR 0.241f
C6 LO VGND 0.0605f
C7 VPB HI 0.00473f
C8 VPB VPWR 0.158f
C9 VPB VGND 0.00479f
C10 VGND VNB 0.406f
C11 LO VNB 0.166f
C12 HI VNB 0.25f
C13 VPWR VNB 0.297f
C14 VPB VNB 0.339f
.ends

.subckt sky130_fd_sc_hd__nand3_1 VNB VPB VGND VPWR A B Y C a_193_47# a_109_47#
X0 VPWR B Y VPB sky130_fd_pr__pfet_01v8_hvt ad=0.165 pd=1.33 as=0.135 ps=1.27 w=1 l=0.15
X1 Y A VPWR VPB sky130_fd_pr__pfet_01v8_hvt ad=0.26 pd=2.52 as=0.165 ps=1.33 w=1 l=0.15
X2 a_193_47# B a_109_47# VNB sky130_fd_pr__nfet_01v8 ad=0.107 pd=0.98 as=0.0878 ps=0.92 w=0.65 l=0.15
X3 Y A a_193_47# VNB sky130_fd_pr__nfet_01v8 ad=0.169 pd=1.82 as=0.107 ps=0.98 w=0.65 l=0.15
X4 Y C VPWR VPB sky130_fd_pr__pfet_01v8_hvt ad=0.135 pd=1.27 as=0.26 ps=2.52 w=1 l=0.15
X5 a_109_47# C VGND VNB sky130_fd_pr__nfet_01v8 ad=0.0878 pd=0.92 as=0.169 ps=1.82 w=0.65 l=0.15
C0 C B 0.051f
C1 VPWR Y 0.317f
C2 VPWR VGND 0.0416f
C3 Y VPB 0.0166f
C4 Y a_193_47# 0.0117f
C5 Y C 0.0724f
C6 VGND VPB 0.00519f
C7 VPWR a_109_47# 2.94e-19
C8 VGND a_193_47# 0.00142f
C9 Y B 0.149f
C10 VPWR A 0.0186f
C11 VGND C 0.0415f
C12 VGND B 0.0116f
C13 VPB A 0.0368f
C14 B a_109_47# 4.42e-19
C15 VPWR VPB 0.0506f
C16 B A 0.0823f
C17 VPWR a_193_47# 5.03e-19
C18 Y VGND 0.181f
C19 VPWR C 0.0414f
C20 Y a_109_47# 0.0108f
C21 VPWR B 0.017f
C22 VPB C 0.0373f
C23 Y A 0.0909f
C24 VGND a_109_47# 9.04e-19
C25 VPB B 0.0268f
C26 a_193_47# B 0.00347f
C27 VGND A 0.01f
C28 VGND VNB 0.263f
C29 Y VNB 0.0816f
C30 VPWR VNB 0.247f
C31 A VNB 0.143f
C32 B VNB 0.0976f
C33 C VNB 0.157f
C34 VPB VNB 0.428f
.ends

.subckt sky130_fd_sc_hd__nand2_1 VNB VPB VGND VPWR A Y B a_113_47#
X0 VPWR A Y VPB sky130_fd_pr__pfet_01v8_hvt ad=0.26 pd=2.52 as=0.135 ps=1.27 w=1 l=0.15
X1 Y A a_113_47# VNB sky130_fd_pr__nfet_01v8 ad=0.169 pd=1.82 as=0.0878 ps=0.92 w=0.65 l=0.15
X2 a_113_47# B VGND VNB sky130_fd_pr__nfet_01v8 ad=0.0878 pd=0.92 as=0.169 ps=1.82 w=0.65 l=0.15
X3 Y B VPWR VPB sky130_fd_pr__pfet_01v8_hvt ad=0.135 pd=1.27 as=0.26 ps=2.52 w=1 l=0.15
C0 VPB VGND 0.0044f
C1 VPB A 0.0379f
C2 B Y 0.0481f
C3 A VGND 0.00949f
C4 VPB Y 0.00618f
C5 Y VGND 0.139f
C6 A Y 0.0855f
C7 a_113_47# VGND 0.0019f
C8 a_113_47# Y 0.00937f
C9 VPWR B 0.0478f
C10 VPB VPWR 0.0509f
C11 VPWR VGND 0.0322f
C12 A VPWR 0.0444f
C13 VPWR Y 0.211f
C14 a_113_47# VPWR 1.78e-19
C15 VPB B 0.0391f
C16 B VGND 0.0544f
C17 A B 0.051f
C18 VGND VNB 0.232f
C19 Y VNB 0.0557f
C20 VPWR VNB 0.245f
C21 A VNB 0.143f
C22 B VNB 0.146f
C23 VPB VNB 0.339f
.ends

.subckt sky130_fd_sc_hd__inv_16 VNB VPB VGND VPWR Y A
X0 Y A VPWR VPB sky130_fd_pr__pfet_01v8_hvt ad=0.135 pd=1.27 as=0.135 ps=1.27 w=1 l=0.15
X1 VPWR A Y VPB sky130_fd_pr__pfet_01v8_hvt ad=0.26 pd=2.52 as=0.135 ps=1.27 w=1 l=0.15
X2 VGND A Y VNB sky130_fd_pr__nfet_01v8 ad=0.0878 pd=0.92 as=0.0878 ps=0.92 w=0.65 l=0.15
X3 Y A VPWR VPB sky130_fd_pr__pfet_01v8_hvt ad=0.135 pd=1.27 as=0.135 ps=1.27 w=1 l=0.15
X4 VGND A Y VNB sky130_fd_pr__nfet_01v8 ad=0.0878 pd=0.92 as=0.0878 ps=0.92 w=0.65 l=0.15
X5 VGND A Y VNB sky130_fd_pr__nfet_01v8 ad=0.0878 pd=0.92 as=0.0878 ps=0.92 w=0.65 l=0.15
X6 Y A VPWR VPB sky130_fd_pr__pfet_01v8_hvt ad=0.135 pd=1.27 as=0.26 ps=2.52 w=1 l=0.15
X7 VGND A Y VNB sky130_fd_pr__nfet_01v8 ad=0.169 pd=1.82 as=0.0878 ps=0.92 w=0.65 l=0.15
X8 VPWR A Y VPB sky130_fd_pr__pfet_01v8_hvt ad=0.135 pd=1.27 as=0.135 ps=1.27 w=1 l=0.15
X9 Y A VGND VNB sky130_fd_pr__nfet_01v8 ad=0.0878 pd=0.92 as=0.0878 ps=0.92 w=0.65 l=0.15
X10 VPWR A Y VPB sky130_fd_pr__pfet_01v8_hvt ad=0.135 pd=1.27 as=0.135 ps=1.27 w=1 l=0.15
X11 Y A VGND VNB sky130_fd_pr__nfet_01v8 ad=0.0878 pd=0.92 as=0.0878 ps=0.92 w=0.65 l=0.15
X12 Y A VPWR VPB sky130_fd_pr__pfet_01v8_hvt ad=0.135 pd=1.27 as=0.135 ps=1.27 w=1 l=0.15
X13 VPWR A Y VPB sky130_fd_pr__pfet_01v8_hvt ad=0.135 pd=1.27 as=0.135 ps=1.27 w=1 l=0.15
X14 Y A VPWR VPB sky130_fd_pr__pfet_01v8_hvt ad=0.135 pd=1.27 as=0.135 ps=1.27 w=1 l=0.15
X15 VGND A Y VNB sky130_fd_pr__nfet_01v8 ad=0.0878 pd=0.92 as=0.0878 ps=0.92 w=0.65 l=0.15
X16 Y A VGND VNB sky130_fd_pr__nfet_01v8 ad=0.0878 pd=0.92 as=0.169 ps=1.82 w=0.65 l=0.15
X17 VGND A Y VNB sky130_fd_pr__nfet_01v8 ad=0.0878 pd=0.92 as=0.0878 ps=0.92 w=0.65 l=0.15
X18 VGND A Y VNB sky130_fd_pr__nfet_01v8 ad=0.0878 pd=0.92 as=0.0878 ps=0.92 w=0.65 l=0.15
X19 Y A VPWR VPB sky130_fd_pr__pfet_01v8_hvt ad=0.135 pd=1.27 as=0.135 ps=1.27 w=1 l=0.15
X20 VGND A Y VNB sky130_fd_pr__nfet_01v8 ad=0.0878 pd=0.92 as=0.0878 ps=0.92 w=0.65 l=0.15
X21 Y A VPWR VPB sky130_fd_pr__pfet_01v8_hvt ad=0.135 pd=1.27 as=0.135 ps=1.27 w=1 l=0.15
X22 VPWR A Y VPB sky130_fd_pr__pfet_01v8_hvt ad=0.135 pd=1.27 as=0.135 ps=1.27 w=1 l=0.15
X23 VPWR A Y VPB sky130_fd_pr__pfet_01v8_hvt ad=0.135 pd=1.27 as=0.135 ps=1.27 w=1 l=0.15
X24 VPWR A Y VPB sky130_fd_pr__pfet_01v8_hvt ad=0.135 pd=1.27 as=0.135 ps=1.27 w=1 l=0.15
X25 Y A VGND VNB sky130_fd_pr__nfet_01v8 ad=0.0878 pd=0.92 as=0.0878 ps=0.92 w=0.65 l=0.15
X26 Y A VPWR VPB sky130_fd_pr__pfet_01v8_hvt ad=0.135 pd=1.27 as=0.135 ps=1.27 w=1 l=0.15
X27 Y A VGND VNB sky130_fd_pr__nfet_01v8 ad=0.0878 pd=0.92 as=0.0878 ps=0.92 w=0.65 l=0.15
X28 Y A VGND VNB sky130_fd_pr__nfet_01v8 ad=0.0878 pd=0.92 as=0.0878 ps=0.92 w=0.65 l=0.15
X29 Y A VGND VNB sky130_fd_pr__nfet_01v8 ad=0.0878 pd=0.92 as=0.0878 ps=0.92 w=0.65 l=0.15
X30 VPWR A Y VPB sky130_fd_pr__pfet_01v8_hvt ad=0.135 pd=1.27 as=0.135 ps=1.27 w=1 l=0.15
X31 Y A VGND VNB sky130_fd_pr__nfet_01v8 ad=0.0878 pd=0.92 as=0.0878 ps=0.92 w=0.65 l=0.15
C0 Y VGND 1.06f
C1 A VPWR 0.28f
C2 VPB A 0.526f
C3 A Y 1.43f
C4 A VGND 0.266f
C5 VPB VPWR 0.159f
C6 VPWR Y 1.47f
C7 VPB Y 0.0305f
C8 VPWR VGND 0.161f
C9 VPB VGND 0.0132f
C10 VGND VNB 0.865f
C11 Y VNB 0.0551f
C12 VPWR VNB 0.737f
C13 A VNB 1.55f
C14 VPB VNB 1.49f
.ends

.subckt CDC CLOCK_GEN.SR_Op.Q FULL_COUNTER.COUNT_SUB_DFF0.Q FULL_COUNTER.COUNT_SUB_DFF10.Q
+ FULL_COUNTER.COUNT_SUB_DFF11.Q FULL_COUNTER.COUNT_SUB_DFF12.Q FULL_COUNTER.COUNT_SUB_DFF13.Q
+ FULL_COUNTER.COUNT_SUB_DFF14.Q FULL_COUNTER.COUNT_SUB_DFF15.Q FULL_COUNTER.COUNT_SUB_DFF16.Q
+ FULL_COUNTER.COUNT_SUB_DFF17.Q FULL_COUNTER.COUNT_SUB_DFF18.Q FULL_COUNTER.COUNT_SUB_DFF19.Q
+ FULL_COUNTER.COUNT_SUB_DFF1.Q FULL_COUNTER.COUNT_SUB_DFF2.Q FULL_COUNTER.COUNT_SUB_DFF3.Q
+ FULL_COUNTER.COUNT_SUB_DFF4.Q FULL_COUNTER.COUNT_SUB_DFF5.Q FULL_COUNTER.COUNT_SUB_DFF6.Q
+ FULL_COUNTER.COUNT_SUB_DFF7.Q FULL_COUNTER.COUNT_SUB_DFF8.Q FULL_COUNTER.COUNT_SUB_DFF9.Q
+ RISING_COUNTER.COUNT_SUB_DFF0.Q RISING_COUNTER.COUNT_SUB_DFF10.Q RISING_COUNTER.COUNT_SUB_DFF11.Q
+ RISING_COUNTER.COUNT_SUB_DFF12.Q RISING_COUNTER.COUNT_SUB_DFF13.Q RISING_COUNTER.COUNT_SUB_DFF14.Q
+ RISING_COUNTER.COUNT_SUB_DFF15.Q RISING_COUNTER.COUNT_SUB_DFF1.Q RISING_COUNTER.COUNT_SUB_DFF2.Q
+ RISING_COUNTER.COUNT_SUB_DFF3.Q RISING_COUNTER.COUNT_SUB_DFF4.Q RISING_COUNTER.COUNT_SUB_DFF5.Q
+ RISING_COUNTER.COUNT_SUB_DFF6.Q RISING_COUNTER.COUNT_SUB_DFF7.Q RISING_COUNTER.COUNT_SUB_DFF8.Q
+ RISING_COUNTER.COUNT_SUB_DFF9.Q FALLING_COUNTER.COUNT_SUB_DFF11.Q FALLING_COUNTER.COUNT_SUB_DFF12.Q
+ FALLING_COUNTER.COUNT_SUB_DFF13.Q FALLING_COUNTER.COUNT_SUB_DFF14.Q FALLING_COUNTER.COUNT_SUB_DFF15.Q
+ V_GND V_HIGH V_SENSE FALLING_COUNTER.COUNT_SUB_DFF0.Q FALLING_COUNTER.COUNT_SUB_DFF10.Q
+ FALLING_COUNTER.COUNT_SUB_DFF1.Q FALLING_COUNTER.COUNT_SUB_DFF2.Q FALLING_COUNTER.COUNT_SUB_DFF3.Q
+ FALLING_COUNTER.COUNT_SUB_DFF4.Q FALLING_COUNTER.COUNT_SUB_DFF5.Q FALLING_COUNTER.COUNT_SUB_DFF6.Q
+ FALLING_COUNTER.COUNT_SUB_DFF7.Q FALLING_COUNTER.COUNT_SUB_DFF8.Q FALLING_COUNTER.COUNT_SUB_DFF9.Q
+ Reset V_LOW
Xsky130_fd_sc_hd__nand2_8_2 V_GND V_LOW V_GND V_LOW sky130_fd_sc_hd__nand2_8_2/A sky130_fd_sc_hd__inv_1_71/A
+ sky130_fd_sc_hd__nand2_8_3/Y sky130_fd_sc_hd__nand2_8_2/a_27_47# sky130_fd_sc_hd__nand2_8
Xsky130_fd_sc_hd__decap_4_90 V_GND V_LOW V_GND V_LOW sky130_fd_sc_hd__decap_4
Xsky130_fd_sc_hd__dfbbn_1_6 V_GND V_LOW V_GND V_LOW FULL_COUNTER.COUNT_SUB_DFF8.Q
+ sky130_fd_sc_hd__dfbbn_1_6/Q_N sky130_fd_sc_hd__inv_16_2/Y sky130_fd_sc_hd__conb_1_10/HI
+ sky130_fd_sc_hd__inv_1_16/Y FULL_COUNTER.COUNT_SUB_DFF7.Q sky130_fd_sc_hd__dfbbn_1_6/a_2136_47#
+ sky130_fd_sc_hd__dfbbn_1_6/a_791_47# sky130_fd_sc_hd__dfbbn_1_6/a_647_21# sky130_fd_sc_hd__dfbbn_1_6/a_891_329#
+ sky130_fd_sc_hd__dfbbn_1_6/a_1363_47# sky130_fd_sc_hd__dfbbn_1_6/a_557_413# sky130_fd_sc_hd__dfbbn_1_6/a_941_21#
+ sky130_fd_sc_hd__dfbbn_1_6/a_1415_315# sky130_fd_sc_hd__dfbbn_1_6/a_473_413# sky130_fd_sc_hd__dfbbn_1_6/a_193_47#
+ sky130_fd_sc_hd__dfbbn_1_6/a_381_47# sky130_fd_sc_hd__dfbbn_1_6/a_1112_329# sky130_fd_sc_hd__dfbbn_1_6/a_1555_47#
+ sky130_fd_sc_hd__dfbbn_1_6/a_581_47# sky130_fd_sc_hd__dfbbn_1_6/a_1340_413# sky130_fd_sc_hd__dfbbn_1_6/a_1159_47#
+ sky130_fd_sc_hd__dfbbn_1_6/a_1256_413# sky130_fd_sc_hd__dfbbn_1_6/a_1672_329# sky130_fd_sc_hd__dfbbn_1_6/a_27_47#
+ sky130_fd_sc_hd__dfbbn_1
Xsky130_fd_sc_hd__inv_1_4 V_GND V_LOW V_GND V_LOW FULL_COUNTER.COUNT_SUB_DFF6.Q sky130_fd_sc_hd__inv_1_4/Y
+ sky130_fd_sc_hd__inv_1
Xsky130_fd_sc_hd__inv_1_48 V_GND V_LOW V_GND V_LOW FALLING_COUNTER.COUNT_SUB_DFF2.Q
+ sky130_fd_sc_hd__inv_1_48/Y sky130_fd_sc_hd__inv_1
Xsky130_fd_sc_hd__inv_1_37 V_GND V_LOW V_GND V_LOW sky130_fd_sc_hd__inv_1_67/Y sky130_fd_sc_hd__inv_1_39/A
+ sky130_fd_sc_hd__inv_1
Xsky130_fd_sc_hd__inv_1_26 V_GND V_SENSE V_GND V_SENSE sky130_fd_sc_hd__inv_1_27/Y
+ sky130_fd_sc_hd__inv_1_26/Y sky130_fd_sc_hd__inv_1
Xsky130_fd_sc_hd__inv_1_15 V_GND V_LOW V_GND V_LOW FULL_COUNTER.COUNT_SUB_DFF9.Q sky130_fd_sc_hd__inv_1_15/Y
+ sky130_fd_sc_hd__inv_1
Xsky130_fd_sc_hd__inv_1_59 V_GND V_LOW V_GND V_LOW RISING_COUNTER.COUNT_SUB_DFF7.Q
+ sky130_fd_sc_hd__inv_1_59/Y sky130_fd_sc_hd__inv_1
Xsky130_fd_sc_hd__nand2_8_3 V_GND V_LOW V_GND V_LOW sky130_fd_sc_hd__nand2_8_3/A sky130_fd_sc_hd__nand2_8_3/Y
+ sky130_fd_sc_hd__inv_1_71/A sky130_fd_sc_hd__nand2_8_3/a_27_47# sky130_fd_sc_hd__nand2_8
Xsky130_fd_sc_hd__decap_4_91 V_GND sky130_fd_sc_hd__fill_4_84/VPB V_GND V_LOW sky130_fd_sc_hd__decap_4
Xsky130_fd_sc_hd__decap_4_80 V_GND sky130_fd_sc_hd__fill_4_72/VPB V_GND V_LOW sky130_fd_sc_hd__decap_4
Xsky130_fd_sc_hd__dfbbn_1_7 V_GND V_LOW V_GND V_LOW FULL_COUNTER.COUNT_SUB_DFF16.Q
+ sky130_fd_sc_hd__dfbbn_1_7/Q_N sky130_fd_sc_hd__inv_16_2/Y sky130_fd_sc_hd__conb_1_12/HI
+ sky130_fd_sc_hd__inv_1_17/Y FULL_COUNTER.COUNT_SUB_DFF15.Q sky130_fd_sc_hd__dfbbn_1_7/a_2136_47#
+ sky130_fd_sc_hd__dfbbn_1_7/a_791_47# sky130_fd_sc_hd__dfbbn_1_7/a_647_21# sky130_fd_sc_hd__dfbbn_1_7/a_891_329#
+ sky130_fd_sc_hd__dfbbn_1_7/a_1363_47# sky130_fd_sc_hd__dfbbn_1_7/a_557_413# sky130_fd_sc_hd__dfbbn_1_7/a_941_21#
+ sky130_fd_sc_hd__dfbbn_1_7/a_1415_315# sky130_fd_sc_hd__dfbbn_1_7/a_473_413# sky130_fd_sc_hd__dfbbn_1_7/a_193_47#
+ sky130_fd_sc_hd__dfbbn_1_7/a_381_47# sky130_fd_sc_hd__dfbbn_1_7/a_1112_329# sky130_fd_sc_hd__dfbbn_1_7/a_1555_47#
+ sky130_fd_sc_hd__dfbbn_1_7/a_581_47# sky130_fd_sc_hd__dfbbn_1_7/a_1340_413# sky130_fd_sc_hd__dfbbn_1_7/a_1159_47#
+ sky130_fd_sc_hd__dfbbn_1_7/a_1256_413# sky130_fd_sc_hd__dfbbn_1_7/a_1672_329# sky130_fd_sc_hd__dfbbn_1_7/a_27_47#
+ sky130_fd_sc_hd__dfbbn_1
Xsky130_fd_sc_hd__inv_1_5 V_GND V_LOW V_GND V_LOW FULL_COUNTER.COUNT_SUB_DFF3.Q sky130_fd_sc_hd__inv_1_5/Y
+ sky130_fd_sc_hd__inv_1
Xsky130_fd_sc_hd__inv_1_49 V_GND V_LOW V_GND V_LOW FALLING_COUNTER.COUNT_SUB_DFF1.Q
+ sky130_fd_sc_hd__inv_1_49/Y sky130_fd_sc_hd__inv_1
Xsky130_fd_sc_hd__inv_1_38 V_GND V_LOW V_GND V_LOW sky130_fd_sc_hd__inv_1_39/Y sky130_fd_sc_hd__inv_1_40/A
+ sky130_fd_sc_hd__inv_1
Xsky130_fd_sc_hd__inv_1_27 V_GND V_SENSE V_GND V_SENSE sky130_fd_sc_hd__inv_1_28/Y
+ sky130_fd_sc_hd__inv_1_27/Y sky130_fd_sc_hd__inv_1
Xsky130_fd_sc_hd__inv_1_16 V_GND V_LOW V_GND V_LOW FULL_COUNTER.COUNT_SUB_DFF8.Q sky130_fd_sc_hd__inv_1_16/Y
+ sky130_fd_sc_hd__inv_1
Xsky130_fd_sc_hd__nand2_8_4 V_GND V_LOW V_GND V_LOW sky130_fd_sc_hd__inv_1_81/Y sky130_fd_sc_hd__inv_1_64/A
+ sky130_fd_sc_hd__inv_1_93/A sky130_fd_sc_hd__nand2_8_4/a_27_47# sky130_fd_sc_hd__nand2_8
Xsky130_fd_sc_hd__decap_4_92 V_GND V_LOW V_GND V_LOW sky130_fd_sc_hd__decap_4
Xsky130_fd_sc_hd__decap_4_81 V_GND sky130_fd_sc_hd__fill_4_73/VPB V_GND V_LOW sky130_fd_sc_hd__decap_4
Xsky130_fd_sc_hd__decap_4_70 V_GND sky130_fd_sc_hd__fill_4_69/VPB V_GND V_LOW sky130_fd_sc_hd__decap_4
Xsky130_fd_sc_hd__dfbbn_1_8 V_GND V_LOW V_GND V_LOW FULL_COUNTER.COUNT_SUB_DFF14.Q
+ sky130_fd_sc_hd__dfbbn_1_8/Q_N sky130_fd_sc_hd__inv_16_2/Y sky130_fd_sc_hd__conb_1_13/HI
+ sky130_fd_sc_hd__inv_1_18/Y FULL_COUNTER.COUNT_SUB_DFF13.Q sky130_fd_sc_hd__dfbbn_1_8/a_2136_47#
+ sky130_fd_sc_hd__dfbbn_1_8/a_791_47# sky130_fd_sc_hd__dfbbn_1_8/a_647_21# sky130_fd_sc_hd__dfbbn_1_8/a_891_329#
+ sky130_fd_sc_hd__dfbbn_1_8/a_1363_47# sky130_fd_sc_hd__dfbbn_1_8/a_557_413# sky130_fd_sc_hd__dfbbn_1_8/a_941_21#
+ sky130_fd_sc_hd__dfbbn_1_8/a_1415_315# sky130_fd_sc_hd__dfbbn_1_8/a_473_413# sky130_fd_sc_hd__dfbbn_1_8/a_193_47#
+ sky130_fd_sc_hd__dfbbn_1_8/a_381_47# sky130_fd_sc_hd__dfbbn_1_8/a_1112_329# sky130_fd_sc_hd__dfbbn_1_8/a_1555_47#