.subckt CDC Reset Next_Edge_HighV Falling_Y Rising_Y Conversion_Finished V_GND V_LOW V_HIGH V_SENSE Falling_Low Falling_Cap Finish_Delay FALLING_COMP.Qb_b FALLING_COMP.Db_Plus FALLING_COMP.Output_Enable FALLING_COMP.Y


X0 CLOCK_GEN.INV_R.O CLOCK_GEN.SR_Op.Q CLOCK_GEN.SR_Op.Qb sky130_fd_sc_hd__nand2_8
X1 FINISH_COMP.INV_DM.O FINISH_COMP.SR_MEM.Q FINISH_COMP.SR_MEM.Qb sky130_fd_sc_hd__nand2_8
X2 RISING_COMP.INV_DM.O RISING_COMP.SR_MEM.Q RISING_COMP.SR_MEM.Qb sky130_fd_sc_hd__nand2_8
X3 CLOCK_GEN.NAND_DR.O CLOCK_GEN.SR_OE.Q CLOCK_GEN.SR_OE.Qb sky130_fd_sc_hd__nand2_8
X4 FALLING_COMP.INV_DM.O FALLING_COMP.SR_MEM.Q FALLING_COMP.SR_MEM.Qb sky130_fd_sc_hd__nand2_8
X5 FULL_COUNTER.COUNT_SUB_DFF0.Q FULL_COUNTER.COUNT_SUB_INV0.O sky130_fd_sc_hd__inv_1
X6 FULL_COUNTER.COUNT_SUB_DFF1.Q FULL_COUNTER.COUNT_SUB_INV1.O sky130_fd_sc_hd__inv_1
X7 FULL_COUNTER.COUNT_SUB_DFF2.Q FULL_COUNTER.COUNT_SUB_INV2.O sky130_fd_sc_hd__inv_1
X8 FULL_COUNTER.COUNT_SUB_DFF3.Q FULL_COUNTER.COUNT_SUB_INV3.O sky130_fd_sc_hd__inv_1
X9 FULL_COUNTER.COUNT_SUB_DFF4.Q FULL_COUNTER.COUNT_SUB_INV4.O sky130_fd_sc_hd__inv_1
X10 FULL_COUNTER.COUNT_SUB_DFF5.Q FULL_COUNTER.COUNT_SUB_INV5.O sky130_fd_sc_hd__inv_1
X11 FULL_COUNTER.COUNT_SUB_DFF6.Q FULL_COUNTER.COUNT_SUB_INV6.O sky130_fd_sc_hd__inv_1
X12 FULL_COUNTER.COUNT_SUB_DFF7.Q FULL_COUNTER.COUNT_SUB_INV7.O sky130_fd_sc_hd__inv_1
X13 FULL_COUNTER.COUNT_SUB_DFF8.Q FULL_COUNTER.COUNT_SUB_INV8.O sky130_fd_sc_hd__inv_1
X14 FULL_COUNTER.COUNT_SUB_DFF9.Q FULL_COUNTER.COUNT_SUB_INV9.O sky130_fd_sc_hd__inv_1
X15 FULL_COUNTER.COUNT_SUB_DFF10.Q FULL_COUNTER.COUNT_SUB_INV10.O sky130_fd_sc_hd__inv_1
X16 FULL_COUNTER.COUNT_SUB_DFF11.Q FULL_COUNTER.COUNT_SUB_INV11.O sky130_fd_sc_hd__inv_1
X17 FULL_COUNTER.COUNT_SUB_DFF12.Q FULL_COUNTER.COUNT_SUB_INV12.O sky130_fd_sc_hd__inv_1
X18 FULL_COUNTER.COUNT_SUB_DFF13.Q FULL_COUNTER.COUNT_SUB_INV13.O sky130_fd_sc_hd__inv_1
X19 FULL_COUNTER.COUNT_SUB_DFF14.Q FULL_COUNTER.COUNT_SUB_INV14.O sky130_fd_sc_hd__inv_1
X20 FULL_COUNTER.COUNT_SUB_DFF15.Q FULL_COUNTER.COUNT_SUB_INV15.O sky130_fd_sc_hd__inv_1
X21 FULL_COUNTER.COUNT_SUB_DFF16.Q FULL_COUNTER.COUNT_SUB_INV16.O sky130_fd_sc_hd__inv_1
X22 FULL_COUNTER.COUNT_SUB_DFF17.Q FULL_COUNTER.COUNT_SUB_INV17.O sky130_fd_sc_hd__inv_1
X23 FULL_COUNTER.COUNT_SUB_DFF18.Q FULL_COUNTER.COUNT_SUB_INV18.O sky130_fd_sc_hd__inv_1
X24 FULL_COUNTER.COUNT_SUB_DFF19.Q FULL_COUNTER.COUNT_SUB_INV19.O sky130_fd_sc_hd__inv_1
X25 FULL_COUNTER.COUNT_SUB_DFF0.Q FULL_COUNTER.COUNT_SUB_INV0.O CLOCK_GEN.NOT_CLK.O FULL_COUNTER.COUNT_SUB_DFF0.Qb FULL_COUNTER.RSTb V_LOW sky130_fd_sc_hd__dfbbn_1
X26 FULL_COUNTER.COUNT_SUB_DFF1.Q FULL_COUNTER.COUNT_SUB_INV1.O FULL_COUNTER.COUNT_SUB_DFF0.Q FULL_COUNTER.COUNT_SUB_DFF1.Qb FULL_COUNTER.RSTb V_LOW sky130_fd_sc_hd__dfbbn_1
X27 FULL_COUNTER.COUNT_SUB_DFF2.Q FULL_COUNTER.COUNT_SUB_INV2.O FULL_COUNTER.COUNT_SUB_DFF1.Q FULL_COUNTER.COUNT_SUB_DFF2.Qb FULL_COUNTER.RSTb V_LOW sky130_fd_sc_hd__dfbbn_1
X28 FULL_COUNTER.COUNT_SUB_DFF3.Q FULL_COUNTER.COUNT_SUB_INV3.O FULL_COUNTER.COUNT_SUB_DFF2.Q FULL_COUNTER.COUNT_SUB_DFF3.Qb FULL_COUNTER.RSTb V_LOW sky130_fd_sc_hd__dfbbn_1
X29 FULL_COUNTER.COUNT_SUB_DFF4.Q FULL_COUNTER.COUNT_SUB_INV4.O FULL_COUNTER.COUNT_SUB_DFF3.Q FULL_COUNTER.COUNT_SUB_DFF4.Qb FULL_COUNTER.RSTb V_LOW sky130_fd_sc_hd__dfbbn_1
X30 FULL_COUNTER.COUNT_SUB_DFF5.Q FULL_COUNTER.COUNT_SUB_INV5.O FULL_COUNTER.COUNT_SUB_DFF4.Q FULL_COUNTER.COUNT_SUB_DFF5.Qb FULL_COUNTER.RSTb V_LOW sky130_fd_sc_hd__dfbbn_1
X31 FULL_COUNTER.COUNT_SUB_DFF6.Q FULL_COUNTER.COUNT_SUB_INV6.O FULL_COUNTER.COUNT_SUB_DFF5.Q FULL_COUNTER.COUNT_SUB_DFF6.Qb FULL_COUNTER.RSTb V_LOW sky130_fd_sc_hd__dfbbn_1
X32 FULL_COUNTER.COUNT_SUB_DFF7.Q FULL_COUNTER.COUNT_SUB_INV7.O FULL_COUNTER.COUNT_SUB_DFF6.Q FULL_COUNTER.COUNT_SUB_DFF7.Qb FULL_COUNTER.RSTb V_LOW sky130_fd_sc_hd__dfbbn_1
X33 FULL_COUNTER.COUNT_SUB_DFF8.Q FULL_COUNTER.COUNT_SUB_INV8.O FULL_COUNTER.COUNT_SUB_DFF7.Q FULL_COUNTER.COUNT_SUB_DFF8.Qb FULL_COUNTER.RSTb V_LOW sky130_fd_sc_hd__dfbbn_1
X34 FULL_COUNTER.COUNT_SUB_DFF9.Q FULL_COUNTER.COUNT_SUB_INV9.O FULL_COUNTER.COUNT_SUB_DFF8.Q FULL_COUNTER.COUNT_SUB_DFF9.Qb FULL_COUNTER.RSTb V_LOW sky130_fd_sc_hd__dfbbn_1
X35 FULL_COUNTER.COUNT_SUB_DFF10.Q FULL_COUNTER.COUNT_SUB_INV10.O FULL_COUNTER.COUNT_SUB_DFF9.Q FULL_COUNTER.COUNT_SUB_DFF10.Qb FULL_COUNTER.RSTb V_LOW sky130_fd_sc_hd__dfbbn_1
X36 FULL_COUNTER.COUNT_SUB_DFF11.Q FULL_COUNTER.COUNT_SUB_INV11.O FULL_COUNTER.COUNT_SUB_DFF10.Q FULL_COUNTER.COUNT_SUB_DFF11.Qb FULL_COUNTER.RSTb V_LOW sky130_fd_sc_hd__dfbbn_1
X37 FULL_COUNTER.COUNT_SUB_DFF12.Q FULL_COUNTER.COUNT_SUB_INV12.O FULL_COUNTER.COUNT_SUB_DFF11.Q FULL_COUNTER.COUNT_SUB_DFF12.Qb FULL_COUNTER.RSTb V_LOW sky130_fd_sc_hd__dfbbn_1
X38 FULL_COUNTER.COUNT_SUB_DFF13.Q FULL_COUNTER.COUNT_SUB_INV13.O FULL_COUNTER.COUNT_SUB_DFF12.Q FULL_COUNTER.COUNT_SUB_DFF13.Qb FULL_COUNTER.RSTb V_LOW sky130_fd_sc_hd__dfbbn_1
X39 FULL_COUNTER.COUNT_SUB_DFF14.Q FULL_COUNTER.COUNT_SUB_INV14.O FULL_COUNTER.COUNT_SUB_DFF13.Q FULL_COUNTER.COUNT_SUB_DFF14.Qb FULL_COUNTER.RSTb V_LOW sky130_fd_sc_hd__dfbbn_1
X40 FULL_COUNTER.COUNT_SUB_DFF15.Q FULL_COUNTER.COUNT_SUB_INV15.O FULL_COUNTER.COUNT_SUB_DFF14.Q FULL_COUNTER.COUNT_SUB_DFF15.Qb FULL_COUNTER.RSTb V_LOW sky130_fd_sc_hd__dfbbn_1
X41 FULL_COUNTER.COUNT_SUB_DFF16.Q FULL_COUNTER.COUNT_SUB_INV16.O FULL_COUNTER.COUNT_SUB_DFF15.Q FULL_COUNTER.COUNT_SUB_DFF16.Qb FULL_COUNTER.RSTb V_LOW sky130_fd_sc_hd__dfbbn_1
X42 FULL_COUNTER.COUNT_SUB_DFF17.Q FULL_COUNTER.COUNT_SUB_INV17.O FULL_COUNTER.COUNT_SUB_DFF16.Q FULL_COUNTER.COUNT_SUB_DFF17.Qb FULL_COUNTER.RSTb V_LOW sky130_fd_sc_hd__dfbbn_1
X43 FULL_COUNTER.COUNT_SUB_DFF18.Q FULL_COUNTER.COUNT_SUB_INV18.O FULL_COUNTER.COUNT_SUB_DFF17.Q FULL_COUNTER.COUNT_SUB_DFF18.Qb FULL_COUNTER.RSTb V_LOW sky130_fd_sc_hd__dfbbn_1
X44 FULL_COUNTER.COUNT_SUB_DFF19.Q FULL_COUNTER.COUNT_SUB_INV19.O FULL_COUNTER.COUNT_SUB_DFF18.Q FULL_COUNTER.COUNT_SUB_DFF19.Qb FULL_COUNTER.RSTb V_LOW sky130_fd_sc_hd__dfbbn_1
X45 RISING_COUNTER.COUNT_SUB_DFF0.Q RISING_COUNTER.COUNT_SUB_INV0.O sky130_fd_sc_hd__inv_1
X46 RISING_COUNTER.COUNT_SUB_DFF1.Q RISING_COUNTER.COUNT_SUB_INV1.O sky130_fd_sc_hd__inv_1
X47 RISING_COUNTER.COUNT_SUB_DFF2.Q RISING_COUNTER.COUNT_SUB_INV2.O sky130_fd_sc_hd__inv_1
X48 RISING_COUNTER.COUNT_SUB_DFF3.Q RISING_COUNTER.COUNT_SUB_INV3.O sky130_fd_sc_hd__inv_1
X49 RISING_COUNTER.COUNT_SUB_DFF4.Q RISING_COUNTER.COUNT_SUB_INV4.O sky130_fd_sc_hd__inv_1
X50 RISING_COUNTER.COUNT_SUB_DFF5.Q RISING_COUNTER.COUNT_SUB_INV5.O sky130_fd_sc_hd__inv_1
X51 RISING_COUNTER.COUNT_SUB_DFF6.Q RISING_COUNTER.COUNT_SUB_INV6.O sky130_fd_sc_hd__inv_1
X52 RISING_COUNTER.COUNT_SUB_DFF7.Q RISING_COUNTER.COUNT_SUB_INV7.O sky130_fd_sc_hd__inv_1
X53 RISING_COUNTER.COUNT_SUB_DFF8.Q RISING_COUNTER.COUNT_SUB_INV8.O sky130_fd_sc_hd__inv_1
X54 RISING_COUNTER.COUNT_SUB_DFF9.Q RISING_COUNTER.COUNT_SUB_INV9.O sky130_fd_sc_hd__inv_1
X55 RISING_COUNTER.COUNT_SUB_DFF10.Q RISING_COUNTER.COUNT_SUB_INV10.O sky130_fd_sc_hd__inv_1
X56 RISING_COUNTER.COUNT_SUB_DFF11.Q RISING_COUNTER.COUNT_SUB_INV11.O sky130_fd_sc_hd__inv_1
X57 RISING_COUNTER.COUNT_SUB_DFF12.Q RISING_COUNTER.COUNT_SUB_INV12.O sky130_fd_sc_hd__inv_1
X58 RISING_COUNTER.COUNT_SUB_DFF13.Q RISING_COUNTER.COUNT_SUB_INV13.O sky130_fd_sc_hd__inv_1
X59 RISING_COUNTER.COUNT_SUB_DFF14.Q RISING_COUNTER.COUNT_SUB_INV14.O sky130_fd_sc_hd__inv_1
X60 RISING_COUNTER.COUNT_SUB_DFF15.Q RISING_COUNTER.COUNT_SUB_INV15.O sky130_fd_sc_hd__inv_1
X61 RISING_COUNTER.COUNT_SUB_DFF0.Q RISING_COUNTER.COUNT_SUB_INV0.O RISING_COMP.NAND3_COMP.O RISING_COUNTER.COUNT_SUB_DFF0.Qb RISING_COUNTER.RSTb V_LOW sky130_fd_sc_hd__dfbbn_1
X62 RISING_COUNTER.COUNT_SUB_DFF1.Q RISING_COUNTER.COUNT_SUB_INV1.O RISING_COUNTER.COUNT_SUB_DFF0.Q RISING_COUNTER.COUNT_SUB_DFF1.Qb RISING_COUNTER.RSTb V_LOW sky130_fd_sc_hd__dfbbn_1
X63 RISING_COUNTER.COUNT_SUB_DFF2.Q RISING_COUNTER.COUNT_SUB_INV2.O RISING_COUNTER.COUNT_SUB_DFF1.Q RISING_COUNTER.COUNT_SUB_DFF2.Qb RISING_COUNTER.RSTb V_LOW sky130_fd_sc_hd__dfbbn_1
X64 RISING_COUNTER.COUNT_SUB_DFF3.Q RISING_COUNTER.COUNT_SUB_INV3.O RISING_COUNTER.COUNT_SUB_DFF2.Q RISING_COUNTER.COUNT_SUB_DFF3.Qb RISING_COUNTER.RSTb V_LOW sky130_fd_sc_hd__dfbbn_1
X65 RISING_COUNTER.COUNT_SUB_DFF4.Q RISING_COUNTER.COUNT_SUB_INV4.O RISING_COUNTER.COUNT_SUB_DFF3.Q RISING_COUNTER.COUNT_SUB_DFF4.Qb RISING_COUNTER.RSTb V_LOW sky130_fd_sc_hd__dfbbn_1
X66 RISING_COUNTER.COUNT_SUB_DFF5.Q RISING_COUNTER.COUNT_SUB_INV5.O RISING_COUNTER.COUNT_SUB_DFF4.Q RISING_COUNTER.COUNT_SUB_DFF5.Qb RISING_COUNTER.RSTb V_LOW sky130_fd_sc_hd__dfbbn_1
X67 RISING_COUNTER.COUNT_SUB_DFF6.Q RISING_COUNTER.COUNT_SUB_INV6.O RISING_COUNTER.COUNT_SUB_DFF5.Q RISING_COUNTER.COUNT_SUB_DFF6.Qb RISING_COUNTER.RSTb V_LOW sky130_fd_sc_hd__dfbbn_1
X68 RISING_COUNTER.COUNT_SUB_DFF7.Q RISING_COUNTER.COUNT_SUB_INV7.O RISING_COUNTER.COUNT_SUB_DFF6.Q RISING_COUNTER.COUNT_SUB_DFF7.Qb RISING_COUNTER.RSTb V_LOW sky130_fd_sc_hd__dfbbn_1
X69 RISING_COUNTER.COUNT_SUB_DFF8.Q RISING_COUNTER.COUNT_SUB_INV8.O RISING_COUNTER.COUNT_SUB_DFF7.Q RISING_COUNTER.COUNT_SUB_DFF8.Qb RISING_COUNTER.RSTb V_LOW sky130_fd_sc_hd__dfbbn_1
X70 RISING_COUNTER.COUNT_SUB_DFF9.Q RISING_COUNTER.COUNT_SUB_INV9.O RISING_COUNTER.COUNT_SUB_DFF8.Q RISING_COUNTER.COUNT_SUB_DFF9.Qb RISING_COUNTER.RSTb V_LOW sky130_fd_sc_hd__dfbbn_1
X71 RISING_COUNTER.COUNT_SUB_DFF10.Q RISING_COUNTER.COUNT_SUB_INV10.O RISING_COUNTER.COUNT_SUB_DFF9.Q RISING_COUNTER.COUNT_SUB_DFF10.Qb RISING_COUNTER.RSTb V_LOW sky130_fd_sc_hd__dfbbn_1
X72 RISING_COUNTER.COUNT_SUB_DFF11.Q RISING_COUNTER.COUNT_SUB_INV11.O RISING_COUNTER.COUNT_SUB_DFF10.Q RISING_COUNTER.COUNT_SUB_DFF11.Qb RISING_COUNTER.RSTb V_LOW sky130_fd_sc_hd__dfbbn_1
X73 RISING_COUNTER.COUNT_SUB_DFF12.Q RISING_COUNTER.COUNT_SUB_INV12.O RISING_COUNTER.COUNT_SUB_DFF11.Q RISING_COUNTER.COUNT_SUB_DFF12.Qb RISING_COUNTER.RSTb V_LOW sky130_fd_sc_hd__dfbbn_1
X74 RISING_COUNTER.COUNT_SUB_DFF13.Q RISING_COUNTER.COUNT_SUB_INV13.O RISING_COUNTER.COUNT_SUB_DFF12.Q RISING_COUNTER.COUNT_SUB_DFF13.Qb RISING_COUNTER.RSTb V_LOW sky130_fd_sc_hd__dfbbn_1
X75 RISING_COUNTER.COUNT_SUB_DFF14.Q RISING_COUNTER.COUNT_SUB_INV14.O RISING_COUNTER.COUNT_SUB_DFF13.Q RISING_COUNTER.COUNT_SUB_DFF14.Qb RISING_COUNTER.RSTb V_LOW sky130_fd_sc_hd__dfbbn_1
X76 RISING_COUNTER.COUNT_SUB_DFF15.Q RISING_COUNTER.COUNT_SUB_INV15.O RISING_COUNTER.COUNT_SUB_DFF14.Q RISING_COUNTER.COUNT_SUB_DFF15.Qb RISING_COUNTER.RSTb V_LOW sky130_fd_sc_hd__dfbbn_1
X77 FALLING_COUNTER.COUNT_SUB_DFF0.Q FALLING_COUNTER.COUNT_SUB_INV0.O sky130_fd_sc_hd__inv_1
X78 FALLING_COUNTER.COUNT_SUB_DFF1.Q FALLING_COUNTER.COUNT_SUB_INV1.O sky130_fd_sc_hd__inv_1
X79 FALLING_COUNTER.COUNT_SUB_DFF2.Q FALLING_COUNTER.COUNT_SUB_INV2.O sky130_fd_sc_hd__inv_1
X80 FALLING_COUNTER.COUNT_SUB_DFF3.Q FALLING_COUNTER.COUNT_SUB_INV3.O sky130_fd_sc_hd__inv_1
X81 FALLING_COUNTER.COUNT_SUB_DFF4.Q FALLING_COUNTER.COUNT_SUB_INV4.O sky130_fd_sc_hd__inv_1
X82 FALLING_COUNTER.COUNT_SUB_DFF5.Q FALLING_COUNTER.COUNT_SUB_INV5.O sky130_fd_sc_hd__inv_1
X83 FALLING_COUNTER.COUNT_SUB_DFF6.Q FALLING_COUNTER.COUNT_SUB_INV6.O sky130_fd_sc_hd__inv_1
X84 FALLING_COUNTER.COUNT_SUB_DFF7.Q FALLING_COUNTER.COUNT_SUB_INV7.O sky130_fd_sc_hd__inv_1
X85 FALLING_COUNTER.COUNT_SUB_DFF8.Q FALLING_COUNTER.COUNT_SUB_INV8.O sky130_fd_sc_hd__inv_1
X86 FALLING_COUNTER.COUNT_SUB_DFF9.Q FALLING_COUNTER.COUNT_SUB_INV9.O sky130_fd_sc_hd__inv_1
X87 FALLING_COUNTER.COUNT_SUB_DFF10.Q FALLING_COUNTER.COUNT_SUB_INV10.O sky130_fd_sc_hd__inv_1
X88 FALLING_COUNTER.COUNT_SUB_DFF11.Q FALLING_COUNTER.COUNT_SUB_INV11.O sky130_fd_sc_hd__inv_1
X89 FALLING_COUNTER.COUNT_SUB_DFF12.Q FALLING_COUNTER.COUNT_SUB_INV12.O sky130_fd_sc_hd__inv_1
X90 FALLING_COUNTER.COUNT_SUB_DFF13.Q FALLING_COUNTER.COUNT_SUB_INV13.O sky130_fd_sc_hd__inv_1
X91 FALLING_COUNTER.COUNT_SUB_DFF14.Q FALLING_COUNTER.COUNT_SUB_INV14.O sky130_fd_sc_hd__inv_1
X92 FALLING_COUNTER.COUNT_SUB_DFF15.Q FALLING_COUNTER.COUNT_SUB_INV15.O sky130_fd_sc_hd__inv_1
X93 FALLING_COUNTER.COUNT_SUB_DFF0.Q FALLING_COUNTER.COUNT_SUB_INV0.O FALLING_COMP.NAND3_COMP.O FALLING_COUNTER.COUNT_SUB_DFF0.Qb FALLING_COUNTER.RSTb V_LOW sky130_fd_sc_hd__dfbbn_1
X94 FALLING_COUNTER.COUNT_SUB_DFF1.Q FALLING_COUNTER.COUNT_SUB_INV1.O FALLING_COUNTER.COUNT_SUB_DFF0.Q FALLING_COUNTER.COUNT_SUB_DFF1.Qb FALLING_COUNTER.RSTb V_LOW sky130_fd_sc_hd__dfbbn_1
X95 FALLING_COUNTER.COUNT_SUB_DFF2.Q FALLING_COUNTER.COUNT_SUB_INV2.O FALLING_COUNTER.COUNT_SUB_DFF1.Q FALLING_COUNTER.COUNT_SUB_DFF2.Qb FALLING_COUNTER.RSTb V_LOW sky130_fd_sc_hd__dfbbn_1
X96 FALLING_COUNTER.COUNT_SUB_DFF3.Q FALLING_COUNTER.COUNT_SUB_INV3.O FALLING_COUNTER.COUNT_SUB_DFF2.Q FALLING_COUNTER.COUNT_SUB_DFF3.Qb FALLING_COUNTER.RSTb V_LOW sky130_fd_sc_hd__dfbbn_1
X97 FALLING_COUNTER.COUNT_SUB_DFF4.Q FALLING_COUNTER.COUNT_SUB_INV4.O FALLING_COUNTER.COUNT_SUB_DFF3.Q FALLING_COUNTER.COUNT_SUB_DFF4.Qb FALLING_COUNTER.RSTb V_LOW sky130_fd_sc_hd__dfbbn_1
X98 FALLING_COUNTER.COUNT_SUB_DFF5.Q FALLING_COUNTER.COUNT_SUB_INV5.O FALLING_COUNTER.COUNT_SUB_DFF4.Q FALLING_COUNTER.COUNT_SUB_DFF5.Qb FALLING_COUNTER.RSTb V_LOW sky130_fd_sc_hd__dfbbn_1
X99 FALLING_COUNTER.COUNT_SUB_DFF6.Q FALLING_COUNTER.COUNT_SUB_INV6.O FALLING_COUNTER.COUNT_SUB_DFF5.Q FALLING_COUNTER.COUNT_SUB_DFF6.Qb FALLING_COUNTER.RSTb V_LOW sky130_fd_sc_hd__dfbbn_1
X100 FALLING_COUNTER.COUNT_SUB_DFF7.Q FALLING_COUNTER.COUNT_SUB_INV7.O FALLING_COUNTER.COUNT_SUB_DFF6.Q FALLING_COUNTER.COUNT_SUB_DFF7.Qb FALLING_COUNTER.RSTb V_LOW sky130_fd_sc_hd__dfbbn_1
X101 FALLING_COUNTER.COUNT_SUB_DFF8.Q FALLING_COUNTER.COUNT_SUB_INV8.O FALLING_COUNTER.COUNT_SUB_DFF7.Q FALLING_COUNTER.COUNT_SUB_DFF8.Qb FALLING_COUNTER.RSTb V_LOW sky130_fd_sc_hd__dfbbn_1
X102 FALLING_COUNTER.COUNT_SUB_DFF9.Q FALLING_COUNTER.COUNT_SUB_INV9.O FALLING_COUNTER.COUNT_SUB_DFF8.Q FALLING_COUNTER.COUNT_SUB_DFF9.Qb FALLING_COUNTER.RSTb V_LOW sky130_fd_sc_hd__dfbbn_1
X103 FALLING_COUNTER.COUNT_SUB_DFF10.Q FALLING_COUNTER.COUNT_SUB_INV10.O FALLING_COUNTER.COUNT_SUB_DFF9.Q FALLING_COUNTER.COUNT_SUB_DFF10.Qb FALLING_COUNTER.RSTb V_LOW sky130_fd_sc_hd__dfbbn_1
X104 FALLING_COUNTER.COUNT_SUB_DFF11.Q FALLING_COUNTER.COUNT_SUB_INV11.O FALLING_COUNTER.COUNT_SUB_DFF10.Q FALLING_COUNTER.COUNT_SUB_DFF11.Qb FALLING_COUNTER.RSTb V_LOW sky130_fd_sc_hd__dfbbn_1
X105 FALLING_COUNTER.COUNT_SUB_DFF12.Q FALLING_COUNTER.COUNT_SUB_INV12.O FALLING_COUNTER.COUNT_SUB_DFF11.Q FALLING_COUNTER.COUNT_SUB_DFF12.Qb FALLING_COUNTER.RSTb V_LOW sky130_fd_sc_hd__dfbbn_1
X106 FALLING_COUNTER.COUNT_SUB_DFF13.Q FALLING_COUNTER.COUNT_SUB_INV13.O FALLING_COUNTER.COUNT_SUB_DFF12.Q FALLING_COUNTER.COUNT_SUB_DFF13.Qb FALLING_COUNTER.RSTb V_LOW sky130_fd_sc_hd__dfbbn_1
X107 FALLING_COUNTER.COUNT_SUB_DFF14.Q FALLING_COUNTER.COUNT_SUB_INV14.O FALLING_COUNTER.COUNT_SUB_DFF13.Q FALLING_COUNTER.COUNT_SUB_DFF14.Qb FALLING_COUNTER.RSTb V_LOW sky130_fd_sc_hd__dfbbn_1
X108 FALLING_COUNTER.COUNT_SUB_DFF15.Q FALLING_COUNTER.COUNT_SUB_INV15.O FALLING_COUNTER.COUNT_SUB_DFF14.Q FALLING_COUNTER.COUNT_SUB_DFF15.Qb FALLING_COUNTER.RSTb V_LOW sky130_fd_sc_hd__dfbbn_1
X109 LOW_CHAIN.low_chain_inv1.O LOW_CHAIN.low_chain_inv2.O sky130_fd_sc_hd__inv_1
X110 LOW_CHAIN.low_chain_inv2.O LOW_CHAIN.low_chain_inv3.O sky130_fd_sc_hd__inv_1
X111 LOW_CHAIN.low_chain_inv3.O LOW_CHAIN.low_chain_inv4.O sky130_fd_sc_hd__inv_1
X112 LOW_CHAIN.low_chain_inv4.O LOW_CHAIN.low_chain_inv5.O sky130_fd_sc_hd__inv_1
X113 LOW_CHAIN.low_chain_inv5.O LOW_CHAIN.low_chain_inv6.O sky130_fd_sc_hd__inv_1
X114 LOW_CHAIN.low_chain_inv6.O LOW_CHAIN.low_chain_inv7.O sky130_fd_sc_hd__inv_1
X115 LOW_CHAIN.low_chain_inv7.O LOW_CHAIN.low_chain_inv8.O sky130_fd_sc_hd__inv_1
X116 LOW_CHAIN.low_chain_inv8.O LOW_CHAIN.low_chain_inv9.O sky130_fd_sc_hd__inv_1
X117 LOW_CHAIN.low_chain_inv9.O LOW_CHAIN.low_chain_inv10.O sky130_fd_sc_hd__inv_1
X118 LOW_CHAIN.low_chain_inv10.O LOW_CHAIN.low_chain_inv11.O sky130_fd_sc_hd__inv_1
X119 LOW_CHAIN.low_chain_inv11.O LOW_CHAIN.low_chain_inv12.O sky130_fd_sc_hd__inv_1
X120 LOW_CHAIN.low_chain_inv12.O LOW_CHAIN.low_chain_inv13.O sky130_fd_sc_hd__inv_1
X121 LOW_CHAIN.low_chain_inv13.O LOW_CHAIN.low_chain_inv14.O sky130_fd_sc_hd__inv_1
X122 LOW_CHAIN.low_chain_inv14.O LOW_CHAIN.low_chain_inv15.O sky130_fd_sc_hd__inv_1
X123 LOW_CHAIN.low_chain_inv15.O LOW_CHAIN.low_chain_inv16.O sky130_fd_sc_hd__inv_1
X124 FINISH_CHAIN.finish_chain_inv15.O CLOCK_GEN.INV_F.O sky130_fd_sc_hd__inv_1
X125 FALLING_COMP.NAND2_COMP.O CLOCK_GEN.INV_F.O CLOCK_GEN.NAND_DF.O sky130_fd_sc_hd__nand2_1
X126 CLOCK_GEN.NAND_DF.O CLOCK_GEN.SR_OE.Qb CLOCK_GEN.SR_OE.Q sky130_fd_sc_hd__nand2_8
X127 CLOCK_GEN.SR_OE.Q CLOCK_GEN.INV_OE.O sky130_fd_sc_hd__inv_1
X128 Reset CLOCK_GEN.INV_R.O sky130_fd_sc_hd__inv_1
X129 FINISH_COMP.NAND3_COMP.O CLOCK_GEN.SR_Op.Qb CLOCK_GEN.SR_Op.Q sky130_fd_sc_hd__nand2_8
X130 Reset CLOCK_GEN.SR_Op.Q CLOCK_GEN.NOR_CLK.O sky130_fd_sc_hd__nor2_1
X131 CLOCK_GEN.SR_OE.Q CLOCK_GEN.NOR_CLK.O CLOCK_GEN.NAND_CLK.O sky130_fd_sc_hd__nand2_1
X132 CLOCK_GEN.NAND_CLK.O CLOCK_GEN.NOT_CLK.O sky130_fd_sc_hd__inv_1
X133 FINISH_CHAIN.finish_chain_inv16.O FINISH_COMP.INV_DM.O sky130_fd_sc_hd__inv_1
X134 FINISH_COMP.INV_DP.O FINISH_COMP.SR_MEM.Qb FINISH_COMP.SR_MEM.Q sky130_fd_sc_hd__nand2_8
X135 FINISH_COMP.SR_MEM.Q FINISH_COMP.INV_Q.O sky130_fd_sc_hd__inv_1
X136 FINISH_COMP.SR_MEM.Qb FINISH_COMP.INV_Qb.O sky130_fd_sc_hd__inv_1
X137 INV_RISING_CAP.O FINISH_CHAIN.finish_chain_inv16.O FINISH_COMP.NAND2_COMP.O sky130_fd_sc_hd__nand2_1
X138 FINISH_COMP.INV_Qb.O FINISH_COMP.INV_DP.O FINISH_COMP.NAND3_COMP.O CLOCK_GEN.INV_OE.O sky130_fd_sc_hd__nand3_1
X139 INV_RISING_LOW.O RISING_COMP.INV_DM.O sky130_fd_sc_hd__inv_1
X140 RISING_COMP.INV_DP.O RISING_COMP.SR_MEM.Qb RISING_COMP.SR_MEM.Q sky130_fd_sc_hd__nand2_8
X141 RISING_COMP.SR_MEM.Q RISING_COMP.INV_Q.O sky130_fd_sc_hd__inv_1
X142 RISING_COMP.SR_MEM.Qb RISING_COMP.INV_Qb.O sky130_fd_sc_hd__inv_1
X143 INV_RISING_CAP.O INV_RISING_LOW.O RISING_COMP.NAND2_COMP.O sky130_fd_sc_hd__nand2_1
X144 RISING_COMP.INV_Qb.O RISING_COMP.INV_DP.O RISING_COMP.NAND3_COMP.O CLOCK_GEN.INV_OE.O sky130_fd_sc_hd__nand3_1
X145 LOW_CHAIN.low_chain_inv16.O FALLING_COMP.INV_DM.O sky130_fd_sc_hd__inv_1
X146 FALLING_COMP.INV_DP.O FALLING_COMP.SR_MEM.Qb FALLING_COMP.SR_MEM.Q sky130_fd_sc_hd__nand2_8
X147 FALLING_COMP.SR_MEM.Q FALLING_COMP.INV_Q.O sky130_fd_sc_hd__inv_1
X148 FALLING_COMP.SR_MEM.Qb FALLING_COMP.INV_Qb.O sky130_fd_sc_hd__inv_1
X149 CAP_CHAIN.cap_chain_inv16.O LOW_CHAIN.low_chain_inv16.O FALLING_COMP.NAND2_COMP.O sky130_fd_sc_hd__nand2_1
X150 FALLING_COMP.INV_Qb.O FALLING_COMP.INV_DP.O FALLING_COMP.NAND3_COMP.O CLOCK_GEN.SR_OE.Q sky130_fd_sc_hd__nand3_1
X151 CAP_CHAIN.cap_chain_inv1.O CAP_CHAIN.cap_chain_inv2.O sky130_fd_sc_hd__inv_1
X152 CAP_CHAIN.cap_chain_inv2.O CAP_CHAIN.cap_chain_inv3.O sky130_fd_sc_hd__inv_1
X153 CAP_CHAIN.cap_chain_inv3.O CAP_CHAIN.cap_chain_inv4.O sky130_fd_sc_hd__inv_1
X154 CAP_CHAIN.cap_chain_inv4.O CAP_CHAIN.cap_chain_inv5.O sky130_fd_sc_hd__inv_1
X155 CAP_CHAIN.cap_chain_inv5.O CAP_CHAIN.cap_chain_inv6.O sky130_fd_sc_hd__inv_1
X156 CAP_CHAIN.cap_chain_inv6.O CAP_CHAIN.cap_chain_inv7.O sky130_fd_sc_hd__inv_1
X157 CAP_CHAIN.cap_chain_inv7.O CAP_CHAIN.cap_chain_inv8.O sky130_fd_sc_hd__inv_1
X158 CAP_CHAIN.cap_chain_inv8.O CAP_CHAIN.cap_chain_inv9.O sky130_fd_sc_hd__inv_1
X159 CAP_CHAIN.cap_chain_inv9.O CAP_CHAIN.cap_chain_inv10.O sky130_fd_sc_hd__inv_1
X160 CAP_CHAIN.cap_chain_inv10.O CAP_CHAIN.cap_chain_inv11.O sky130_fd_sc_hd__inv_1
X161 CAP_CHAIN.cap_chain_inv11.O CAP_CHAIN.cap_chain_inv12.O sky130_fd_sc_hd__inv_1
X162 CAP_CHAIN.cap_chain_inv12.O CAP_CHAIN.cap_chain_inv13.O sky130_fd_sc_hd__inv_1
X163 CAP_CHAIN.cap_chain_inv13.O CAP_CHAIN.cap_chain_inv14.O sky130_fd_sc_hd__inv_1
X164 CAP_CHAIN.cap_chain_inv14.O CAP_CHAIN.cap_chain_inv15.O sky130_fd_sc_hd__inv_1
X165 CAP_CHAIN.cap_chain_inv15.O CAP_CHAIN.cap_chain_inv16.O sky130_fd_sc_hd__inv_1
X166 FINISH_CHAIN.finish_chain_inv1.O FINISH_CHAIN.finish_chain_inv2.O sky130_fd_sc_hd__inv_1
X167 FINISH_CHAIN.finish_chain_inv2.O FINISH_CHAIN.finish_chain_inv3.O sky130_fd_sc_hd__inv_1
X168 FINISH_CHAIN.finish_chain_inv3.O FINISH_CHAIN.finish_chain_inv4.O sky130_fd_sc_hd__inv_1
X169 FINISH_CHAIN.finish_chain_inv4.O FINISH_CHAIN.finish_chain_inv5.O sky130_fd_sc_hd__inv_1
X170 FINISH_CHAIN.finish_chain_inv5.O FINISH_CHAIN.finish_chain_inv6.O sky130_fd_sc_hd__inv_1
X171 FINISH_CHAIN.finish_chain_inv6.O FINISH_CHAIN.finish_chain_inv7.O sky130_fd_sc_hd__inv_1
X172 FINISH_CHAIN.finish_chain_inv7.O FINISH_CHAIN.finish_chain_inv8.O sky130_fd_sc_hd__inv_1
X173 FINISH_CHAIN.finish_chain_inv8.O FINISH_CHAIN.finish_chain_inv9.O sky130_fd_sc_hd__inv_1
X174 FINISH_CHAIN.finish_chain_inv9.O FINISH_CHAIN.finish_chain_inv10.O sky130_fd_sc_hd__inv_1
X175 FINISH_CHAIN.finish_chain_inv10.O FINISH_CHAIN.finish_chain_inv11.O sky130_fd_sc_hd__inv_1
X176 FINISH_CHAIN.finish_chain_inv11.O FINISH_CHAIN.finish_chain_inv12.O sky130_fd_sc_hd__inv_1
X177 FINISH_CHAIN.finish_chain_inv12.O FINISH_CHAIN.finish_chain_inv13.O sky130_fd_sc_hd__inv_1
X178 FINISH_CHAIN.finish_chain_inv13.O FINISH_CHAIN.finish_chain_inv14.O sky130_fd_sc_hd__inv_1
X179 FINISH_CHAIN.finish_chain_inv14.O FINISH_CHAIN.finish_chain_inv15.O sky130_fd_sc_hd__inv_1
X180 FINISH_CHAIN.finish_chain_inv15.O FINISH_CHAIN.finish_chain_inv16.O sky130_fd_sc_hd__inv_1
X181 V_HIGH Reset V_SENSE transmission_gate
X182 Next_Edge_LowV_b Next_Edge_HighV sky130_fd_sc_hd__inv_2
X183 CLOCK_GEN.NOT_CLK.O Next_Edge_LowV_b sky130_fd_sc_hd__inv_1
X184 Reset FULL_COUNTER.RSTb sky130_fd_sc_hd__inv_16
X185 RISING_COMP.NAND2_COMP.O FINISH_CHAIN.finish_chain_inv15.O CLOCK_GEN.NAND_DR.O sky130_fd_sc_hd__nand2_1
X186 INV_RISING_CAP.O FINISH_COMP.INV_DP.O sky130_fd_sc_hd__inv_1
X187 Reset RISING_COUNTER.RSTb sky130_fd_sc_hd__inv_16
X188 INV_RISING_CAP.O RISING_COMP.INV_DP.O sky130_fd_sc_hd__inv_1
X189 Reset FALLING_COUNTER.RSTb sky130_fd_sc_hd__inv_16
X190 CAP_CHAIN.cap_chain_inv16.O FALLING_COMP.INV_DP.O sky130_fd_sc_hd__inv_1
X191 INV_RISING_LOW.O FINISH_CHAIN.finish_chain_inv1.O sky130_fd_sc_hd__inv_1
X192 CAP_CHAIN.cap_chain_inv16.O INV_RISING_CAP.O sky130_fd_sc_hd__inv_1
X193 LOW_CHAIN.low_chain_inv16.O INV_RISING_LOW.O sky130_fd_sc_hd__inv_1
X194 Next_Edge_HighV CAP_CHAIN.cap_chain_inv1.O sky130_fd_sc_hd__inv_1
X195 Next_Edge_HighV LOW_CHAIN.low_chain_inv1.O sky130_fd_sc_hd__inv_1
V0 Rising_Low INV_RISING_LOW.O DC 0
V1 INV_RISING_LOW.I Falling_Low DC 0
V2 Finish_Low FINISH_CHAIN.O DC 0
V3 Finish_Delay FINISH_CHAIN.Ob DC 0
V4 FINISH_CHAIN.I Rising_Low DC 0
V5 Falling_Cap CAP_CHAIN.O DC 0
V6 CAP_CHAIN.I Next_Edge_HighV DC 0
V7 Falling_Y FALLING_COMP.Y DC 0
V8 Falling_Done FALLING_COMP.Done DC 0
V9 FALLING_COMP.Output_Enable Falling_Output_Enable DC 0
V10 FALLING_COMP.D_Minus Falling_Low DC 0
V11 FALLING_COMP.D_Plus Falling_Cap DC 0
V12 Rising_Cap INV_RISING_CAP.O DC 0
V13 INV_RISING_CAP.I Falling_Cap DC 0
V14 Rising_Y RISING_COMP.Y DC 0
V15 Rising_Done RISING_COMP.Done DC 0
V16 RISING_COMP.Output_Enable Rising_Output_Enable DC 0
V17 RISING_COMP.D_Minus Rising_Low DC 0
V18 RISING_COMP.D_Plus Rising_Cap DC 0
V19 Finish FINISH_COMP.Y DC 0
V20 FINISH_COMP.Output_Enable Rising_Output_Enable DC 0
V21 FINISH_COMP.D_Minus Finish_Low DC 0
V22 FINISH_COMP.D_Plus Rising_Cap DC 0
V23 Conversion_Finished CLOCK_GEN.Conv_Finish DC 0
V24 Next_Edge_LowV CLOCK_GEN.Next_Edge DC 0
V25 Falling_Output_Enable CLOCK_GEN.OE_Falling DC 0
V26 Rising_Output_Enable CLOCK_GEN.OE_Rising DC 0
V27 CLOCK_GEN.Finish Finish DC 0
V28 CLOCK_GEN.Reset Reset DC 0
V29 CLOCK_GEN.Finish_Delay Finish_Delay DC 0
V30 CLOCK_GEN.Done_Falling Falling_Done DC 0
V31 CLOCK_GEN.Done_Rising Rising_Done DC 0
V32 Falling_Low LOW_CHAIN.O DC 0
V33 LOW_CHAIN.I Next_Edge_HighV DC 0
V34 D_SUB2.0 FALLING_COUNTER.O.0 DC 0
V35 D_SUB2.1 FALLING_COUNTER.O.1 DC 0
V36 D_SUB2.2 FALLING_COUNTER.O.2 DC 0
V37 D_SUB2.3 FALLING_COUNTER.O.3 DC 0
V38 D_SUB2.4 FALLING_COUNTER.O.4 DC 0
V39 D_SUB2.5 FALLING_COUNTER.O.5 DC 0
V40 D_SUB2.6 FALLING_COUNTER.O.6 DC 0
V41 D_SUB2.7 FALLING_COUNTER.O.7 DC 0
V42 D_SUB2.8 FALLING_COUNTER.O.8 DC 0
V43 D_SUB2.9 FALLING_COUNTER.O.9 DC 0
V44 D_SUB2.10 FALLING_COUNTER.O.10 DC 0
V45 D_SUB2.11 FALLING_COUNTER.O.11 DC 0
V46 D_SUB2.12 FALLING_COUNTER.O.12 DC 0
V47 D_SUB2.13 FALLING_COUNTER.O.13 DC 0
V48 D_SUB2.14 FALLING_COUNTER.O.14 DC 0
V49 D_SUB2.15 FALLING_COUNTER.O.15 DC 0
V50 FALLING_COUNTER.RST Reset DC 0
V51 FALLING_COUNTER.CLK Falling_Y DC 0
V52 D_SUB1.0 RISING_COUNTER.O.0 DC 0
V53 D_SUB1.1 RISING_COUNTER.O.1 DC 0
V54 D_SUB1.2 RISING_COUNTER.O.2 DC 0
V55 D_SUB1.3 RISING_COUNTER.O.3 DC 0
V56 D_SUB1.4 RISING_COUNTER.O.4 DC 0
V57 D_SUB1.5 RISING_COUNTER.O.5 DC 0
V58 D_SUB1.6 RISING_COUNTER.O.6 DC 0
V59 D_SUB1.7 RISING_COUNTER.O.7 DC 0
V60 D_SUB1.8 RISING_COUNTER.O.8 DC 0
V61 D_SUB1.9 RISING_COUNTER.O.9 DC 0
V62 D_SUB1.10 RISING_COUNTER.O.10 DC 0
V63 D_SUB1.11 RISING_COUNTER.O.11 DC 0
V64 D_SUB1.12 RISING_COUNTER.O.12 DC 0
V65 D_SUB1.13 RISING_COUNTER.O.13 DC 0
V66 D_SUB1.14 RISING_COUNTER.O.14 DC 0
V67 D_SUB1.15 RISING_COUNTER.O.15 DC 0
V68 RISING_COUNTER.RST Reset DC 0
V69 RISING_COUNTER.CLK Rising_Y DC 0
V70 D_MAIN.0 FULL_COUNTER.O.0 DC 0
V71 D_MAIN.1 FULL_COUNTER.O.1 DC 0
V72 D_MAIN.2 FULL_COUNTER.O.2 DC 0
V73 D_MAIN.3 FULL_COUNTER.O.3 DC 0
V74 D_MAIN.4 FULL_COUNTER.O.4 DC 0
V75 D_MAIN.5 FULL_COUNTER.O.5 DC 0
V76 D_MAIN.6 FULL_COUNTER.O.6 DC 0
V77 D_MAIN.7 FULL_COUNTER.O.7 DC 0
V78 D_MAIN.8 FULL_COUNTER.O.8 DC 0
V79 D_MAIN.9 FULL_COUNTER.O.9 DC 0
V80 D_MAIN.10 FULL_COUNTER.O.10 DC 0
V81 D_MAIN.11 FULL_COUNTER.O.11 DC 0
V82 D_MAIN.12 FULL_COUNTER.O.12 DC 0
V83 D_MAIN.13 FULL_COUNTER.O.13 DC 0
V84 D_MAIN.14 FULL_COUNTER.O.14 DC 0
V85 D_MAIN.15 FULL_COUNTER.O.15 DC 0
V86 D_MAIN.16 FULL_COUNTER.O.16 DC 0
V87 D_MAIN.17 FULL_COUNTER.O.17 DC 0
V88 D_MAIN.18 FULL_COUNTER.O.18 DC 0
V89 D_MAIN.19 FULL_COUNTER.O.19 DC 0
V90 FULL_COUNTER.RST Reset DC 0
V91 FULL_COUNTER.CLK Next_Edge_LowV DC 0
V92 LOW_CHAIN.low_chain1 LOW_CHAIN.low_chain_inv1.O DC 0
V93 LOW_CHAIN.low_chain_inv1.I LOW_CHAIN.I DC 0
V94 LOW_CHAIN.low_chain2 LOW_CHAIN.low_chain_inv2.O DC 0
V95 LOW_CHAIN.low_chain_inv2.I LOW_CHAIN.low_chain1 DC 0
V96 LOW_CHAIN.low_chain3 LOW_CHAIN.low_chain_inv3.O DC 0
V97 LOW_CHAIN.low_chain_inv3.I LOW_CHAIN.low_chain2 DC 0
V98 LOW_CHAIN.low_chain4 LOW_CHAIN.low_chain_inv4.O DC 0
V99 LOW_CHAIN.low_chain_inv4.I LOW_CHAIN.low_chain3 DC 0
V100 LOW_CHAIN.low_chain5 LOW_CHAIN.low_chain_inv5.O DC 0
V101 LOW_CHAIN.low_chain_inv5.I LOW_CHAIN.low_chain4 DC 0
V102 LOW_CHAIN.low_chain6 LOW_CHAIN.low_chain_inv6.O DC 0
V103 LOW_CHAIN.low_chain_inv6.I LOW_CHAIN.low_chain5 DC 0
V104 LOW_CHAIN.low_chain7 LOW_CHAIN.low_chain_inv7.O DC 0
V105 LOW_CHAIN.low_chain_inv7.I LOW_CHAIN.low_chain6 DC 0
V106 LOW_CHAIN.low_chain8 LOW_CHAIN.low_chain_inv8.O DC 0
V107 LOW_CHAIN.low_chain_inv8.I LOW_CHAIN.low_chain7 DC 0
V108 LOW_CHAIN.low_chain9 LOW_CHAIN.low_chain_inv9.O DC 0
V109 LOW_CHAIN.low_chain_inv9.I LOW_CHAIN.low_chain8 DC 0
V110 LOW_CHAIN.low_chain10 LOW_CHAIN.low_chain_inv10.O DC 0
V111 LOW_CHAIN.low_chain_inv10.I LOW_CHAIN.low_chain9 DC 0
V112 LOW_CHAIN.low_chain11 LOW_CHAIN.low_chain_inv11.O DC 0
V113 LOW_CHAIN.low_chain_inv11.I LOW_CHAIN.low_chain10 DC 0
V114 LOW_CHAIN.low_chain12 LOW_CHAIN.low_chain_inv12.O DC 0
V115 LOW_CHAIN.low_chain_inv12.I LOW_CHAIN.low_chain11 DC 0
V116 LOW_CHAIN.low_chain13 LOW_CHAIN.low_chain_inv13.O DC 0
V117 LOW_CHAIN.low_chain_inv13.I LOW_CHAIN.low_chain12 DC 0
V118 LOW_CHAIN.low_chain14 LOW_CHAIN.low_chain_inv14.O DC 0
V119 LOW_CHAIN.low_chain_inv14.I LOW_CHAIN.low_chain13 DC 0
V120 LOW_CHAIN.low_chain15 LOW_CHAIN.low_chain_inv15.O DC 0
V121 LOW_CHAIN.low_chain_inv15.I LOW_CHAIN.low_chain14 DC 0
V122 LOW_CHAIN.O LOW_CHAIN.low_chain_inv16.O DC 0
V123 LOW_CHAIN.low_chain_inv16.I LOW_CHAIN.low_chain15 DC 0
V124 CAP_CHAIN.cap_chain1 CAP_CHAIN.cap_chain_inv1.O DC 0
V125 CAP_CHAIN.cap_chain_inv1.I CAP_CHAIN.I DC 0
V126 CAP_CHAIN.cap_chain2 CAP_CHAIN.cap_chain_inv2.O DC 0
V127 CAP_CHAIN.cap_chain_inv2.I CAP_CHAIN.cap_chain1 DC 0
V128 CAP_CHAIN.cap_chain3 CAP_CHAIN.cap_chain_inv3.O DC 0
V129 CAP_CHAIN.cap_chain_inv3.I CAP_CHAIN.cap_chain2 DC 0
V130 CAP_CHAIN.cap_chain4 CAP_CHAIN.cap_chain_inv4.O DC 0
V131 CAP_CHAIN.cap_chain_inv4.I CAP_CHAIN.cap_chain3 DC 0
V132 CAP_CHAIN.cap_chain5 CAP_CHAIN.cap_chain_inv5.O DC 0
V133 CAP_CHAIN.cap_chain_inv5.I CAP_CHAIN.cap_chain4 DC 0
V134 CAP_CHAIN.cap_chain6 CAP_CHAIN.cap_chain_inv6.O DC 0
V135 CAP_CHAIN.cap_chain_inv6.I CAP_CHAIN.cap_chain5 DC 0
V136 CAP_CHAIN.cap_chain7 CAP_CHAIN.cap_chain_inv7.O DC 0
V137 CAP_CHAIN.cap_chain_inv7.I CAP_CHAIN.cap_chain6 DC 0
V138 CAP_CHAIN.cap_chain8 CAP_CHAIN.cap_chain_inv8.O DC 0
V139 CAP_CHAIN.cap_chain_inv8.I CAP_CHAIN.cap_chain7 DC 0
V140 CAP_CHAIN.cap_chain9 CAP_CHAIN.cap_chain_inv9.O DC 0
V141 CAP_CHAIN.cap_chain_inv9.I CAP_CHAIN.cap_chain8 DC 0
V142 CAP_CHAIN.cap_chain10 CAP_CHAIN.cap_chain_inv10.O DC 0
V143 CAP_CHAIN.cap_chain_inv10.I CAP_CHAIN.cap_chain9 DC 0
V144 FINISH_CHAIN.finish_chain1 FINISH_CHAIN.finish_chain_inv1.O DC 0
V145 FINISH_CHAIN.finish_chain_inv1.I FINISH_CHAIN.I DC 0
V146 FINISH_CHAIN.finish_chain2 FINISH_CHAIN.finish_chain_inv2.O DC 0
V147 FINISH_CHAIN.finish_chain_inv2.I FINISH_CHAIN.finish_chain1 DC 0
V148 FINISH_CHAIN.finish_chain3 FINISH_CHAIN.finish_chain_inv3.O DC 0
V149 FINISH_CHAIN.finish_chain_inv3.I FINISH_CHAIN.finish_chain2 DC 0
V150 FINISH_CHAIN.finish_chain4 FINISH_CHAIN.finish_chain_inv4.O DC 0
V151 FINISH_CHAIN.finish_chain_inv4.I FINISH_CHAIN.finish_chain3 DC 0
V152 FINISH_CHAIN.finish_chain5 FINISH_CHAIN.finish_chain_inv5.O DC 0
V153 FINISH_CHAIN.finish_chain_inv5.I FINISH_CHAIN.finish_chain4 DC 0
V154 FINISH_CHAIN.finish_chain6 FINISH_CHAIN.finish_chain_inv6.O DC 0
V155 FINISH_CHAIN.finish_chain_inv6.I FINISH_CHAIN.finish_chain5 DC 0
V156 FINISH_CHAIN.finish_chain7 FINISH_CHAIN.finish_chain_inv7.O DC 0
V157 FINISH_CHAIN.finish_chain_inv7.I FINISH_CHAIN.finish_chain6 DC 0
V158 FINISH_CHAIN.finish_chain8 FINISH_CHAIN.finish_chain_inv8.O DC 0
V159 FINISH_CHAIN.finish_chain_inv8.I FINISH_CHAIN.finish_chain7 DC 0
V160 FINISH_CHAIN.finish_chain9 FINISH_CHAIN.finish_chain_inv9.O DC 0
V161 FINISH_CHAIN.finish_chain_inv9.I FINISH_CHAIN.finish_chain8 DC 0
V162 FINISH_CHAIN.finish_chain10 FINISH_CHAIN.finish_chain_inv10.O DC 0