* NGSPICE file created from CDC.ext - technology: sky130A

.subckt sky130_fd_sc_hd__inv_16 VNB VPB VGND VPWR Y A
X0 Y A VPWR VPB sky130_fd_pr__pfet_01v8_hvt ad=0.135 pd=1.27 as=0.135 ps=1.27 w=1 l=0.15
X1 VPWR A Y VPB sky130_fd_pr__pfet_01v8_hvt ad=0.26 pd=2.52 as=0.135 ps=1.27 w=1 l=0.15
X2 VGND A Y VNB sky130_fd_pr__nfet_01v8 ad=0.0878 pd=0.92 as=0.0878 ps=0.92 w=0.65 l=0.15
X3 Y A VPWR VPB sky130_fd_pr__pfet_01v8_hvt ad=0.135 pd=1.27 as=0.135 ps=1.27 w=1 l=0.15
X4 VGND A Y VNB sky130_fd_pr__nfet_01v8 ad=0.0878 pd=0.92 as=0.0878 ps=0.92 w=0.65 l=0.15
X5 VGND A Y VNB sky130_fd_pr__nfet_01v8 ad=0.0878 pd=0.92 as=0.0878 ps=0.92 w=0.65 l=0.15
X6 Y A VPWR VPB sky130_fd_pr__pfet_01v8_hvt ad=0.135 pd=1.27 as=0.26 ps=2.52 w=1 l=0.15
X7 VGND A Y VNB sky130_fd_pr__nfet_01v8 ad=0.169 pd=1.82 as=0.0878 ps=0.92 w=0.65 l=0.15
X8 VPWR A Y VPB sky130_fd_pr__pfet_01v8_hvt ad=0.135 pd=1.27 as=0.135 ps=1.27 w=1 l=0.15
X9 Y A VGND VNB sky130_fd_pr__nfet_01v8 ad=0.0878 pd=0.92 as=0.0878 ps=0.92 w=0.65 l=0.15
X10 VPWR A Y VPB sky130_fd_pr__pfet_01v8_hvt ad=0.135 pd=1.27 as=0.135 ps=1.27 w=1 l=0.15
X11 Y A VGND VNB sky130_fd_pr__nfet_01v8 ad=0.0878 pd=0.92 as=0.0878 ps=0.92 w=0.65 l=0.15
X12 Y A VPWR VPB sky130_fd_pr__pfet_01v8_hvt ad=0.135 pd=1.27 as=0.135 ps=1.27 w=1 l=0.15
X13 VPWR A Y VPB sky130_fd_pr__pfet_01v8_hvt ad=0.135 pd=1.27 as=0.135 ps=1.27 w=1 l=0.15
X14 Y A VPWR VPB sky130_fd_pr__pfet_01v8_hvt ad=0.135 pd=1.27 as=0.135 ps=1.27 w=1 l=0.15
X15 VGND A Y VNB sky130_fd_pr__nfet_01v8 ad=0.0878 pd=0.92 as=0.0878 ps=0.92 w=0.65 l=0.15
X16 Y A VGND VNB sky130_fd_pr__nfet_01v8 ad=0.0878 pd=0.92 as=0.169 ps=1.82 w=0.65 l=0.15
X17 VGND A Y VNB sky130_fd_pr__nfet_01v8 ad=0.0878 pd=0.92 as=0.0878 ps=0.92 w=0.65 l=0.15
X18 VGND A Y VNB sky130_fd_pr__nfet_01v8 ad=0.0878 pd=0.92 as=0.0878 ps=0.92 w=0.65 l=0.15
X19 Y A VPWR VPB sky130_fd_pr__pfet_01v8_hvt ad=0.135 pd=1.27 as=0.135 ps=1.27 w=1 l=0.15
X20 VGND A Y VNB sky130_fd_pr__nfet_01v8 ad=0.0878 pd=0.92 as=0.0878 ps=0.92 w=0.65 l=0.15
X21 Y A VPWR VPB sky130_fd_pr__pfet_01v8_hvt ad=0.135 pd=1.27 as=0.135 ps=1.27 w=1 l=0.15
X22 VPWR A Y VPB sky130_fd_pr__pfet_01v8_hvt ad=0.135 pd=1.27 as=0.135 ps=1.27 w=1 l=0.15
X23 VPWR A Y VPB sky130_fd_pr__pfet_01v8_hvt ad=0.135 pd=1.27 as=0.135 ps=1.27 w=1 l=0.15
X24 VPWR A Y VPB sky130_fd_pr__pfet_01v8_hvt ad=0.135 pd=1.27 as=0.135 ps=1.27 w=1 l=0.15
X25 Y A VGND VNB sky130_fd_pr__nfet_01v8 ad=0.0878 pd=0.92 as=0.0878 ps=0.92 w=0.65 l=0.15
X26 Y A VPWR VPB sky130_fd_pr__pfet_01v8_hvt ad=0.135 pd=1.27 as=0.135 ps=1.27 w=1 l=0.15
X27 Y A VGND VNB sky130_fd_pr__nfet_01v8 ad=0.0878 pd=0.92 as=0.0878 ps=0.92 w=0.65 l=0.15
X28 Y A VGND VNB sky130_fd_pr__nfet_01v8 ad=0.0878 pd=0.92 as=0.0878 ps=0.92 w=0.65 l=0.15
X29 Y A VGND VNB sky130_fd_pr__nfet_01v8 ad=0.0878 pd=0.92 as=0.0878 ps=0.92 w=0.65 l=0.15
X30 VPWR A Y VPB sky130_fd_pr__pfet_01v8_hvt ad=0.135 pd=1.27 as=0.135 ps=1.27 w=1 l=0.15
X31 Y A VGND VNB sky130_fd_pr__nfet_01v8 ad=0.0878 pd=0.92 as=0.0878 ps=0.92 w=0.65 l=0.15
C0 Y VPB 0.0305f
C1 VPWR A 0.28f
C2 Y VGND 1.06f
C3 VPWR VPB 0.159f
C4 VPB A 0.526f
C5 VGND VPWR 0.161f
C6 VGND A 0.266f
C7 Y VPWR 1.47f
C8 Y A 1.43f
C9 VGND VPB 0.0132f
C10 VGND VNB 0.865f
C11 Y VNB 0.0551f
C12 VPWR VNB 0.737f
C13 A VNB 1.55f
C14 VPB VNB 1.49f
.ends

.subckt sky130_fd_sc_hd__nand2_8 VNB VPB VGND VPWR A Y B a_27_47#
X0 a_27_47# B VGND VNB sky130_fd_pr__nfet_01v8 ad=0.0878 pd=0.92 as=0.0878 ps=0.92 w=0.65 l=0.15
X1 Y A VPWR VPB sky130_fd_pr__pfet_01v8_hvt ad=0.135 pd=1.27 as=0.135 ps=1.27 w=1 l=0.15
X2 a_27_47# B VGND VNB sky130_fd_pr__nfet_01v8 ad=0.0878 pd=0.92 as=0.0878 ps=0.92 w=0.65 l=0.15
X3 a_27_47# A Y VNB sky130_fd_pr__nfet_01v8 ad=0.0878 pd=0.92 as=0.0878 ps=0.92 w=0.65 l=0.15
X4 a_27_47# A Y VNB sky130_fd_pr__nfet_01v8 ad=0.0878 pd=0.92 as=0.0878 ps=0.92 w=0.65 l=0.15
X5 Y B VPWR VPB sky130_fd_pr__pfet_01v8_hvt ad=0.135 pd=1.27 as=0.135 ps=1.27 w=1 l=0.15
X6 VPWR B Y VPB sky130_fd_pr__pfet_01v8_hvt ad=0.135 pd=1.27 as=0.135 ps=1.27 w=1 l=0.15
X7 Y A a_27_47# VNB sky130_fd_pr__nfet_01v8 ad=0.0878 pd=0.92 as=0.0878 ps=0.92 w=0.65 l=0.15
X8 Y A a_27_47# VNB sky130_fd_pr__nfet_01v8 ad=0.0878 pd=0.92 as=0.0878 ps=0.92 w=0.65 l=0.15
X9 Y A a_27_47# VNB sky130_fd_pr__nfet_01v8 ad=0.0878 pd=0.92 as=0.0878 ps=0.92 w=0.65 l=0.15
X10 Y B VPWR VPB sky130_fd_pr__pfet_01v8_hvt ad=0.135 pd=1.27 as=0.135 ps=1.27 w=1 l=0.15
X11 VPWR A Y VPB sky130_fd_pr__pfet_01v8_hvt ad=0.135 pd=1.27 as=0.135 ps=1.27 w=1 l=0.15
X12 Y A VPWR VPB sky130_fd_pr__pfet_01v8_hvt ad=0.135 pd=1.27 as=0.135 ps=1.27 w=1 l=0.15
X13 VPWR B Y VPB sky130_fd_pr__pfet_01v8_hvt ad=0.135 pd=1.27 as=0.135 ps=1.27 w=1 l=0.15
X14 VPWR A Y VPB sky130_fd_pr__pfet_01v8_hvt ad=0.135 pd=1.27 as=0.135 ps=1.27 w=1 l=0.15
X15 a_27_47# B VGND VNB sky130_fd_pr__nfet_01v8 ad=0.0878 pd=0.92 as=0.0878 ps=0.92 w=0.65 l=0.15
X16 a_27_47# B VGND VNB sky130_fd_pr__nfet_01v8 ad=0.0878 pd=0.92 as=0.0878 ps=0.92 w=0.65 l=0.15
X17 a_27_47# A Y VNB sky130_fd_pr__nfet_01v8 ad=0.247 pd=2.06 as=0.0878 ps=0.92 w=0.65 l=0.15
X18 Y A VPWR VPB sky130_fd_pr__pfet_01v8_hvt ad=0.135 pd=1.27 as=0.135 ps=1.27 w=1 l=0.15
X19 VPWR B Y VPB sky130_fd_pr__pfet_01v8_hvt ad=0.135 pd=1.27 as=0.135 ps=1.27 w=1 l=0.15
X20 VGND B a_27_47# VNB sky130_fd_pr__nfet_01v8 ad=0.0878 pd=0.92 as=0.0878 ps=0.92 w=0.65 l=0.15
X21 VGND B a_27_47# VNB sky130_fd_pr__nfet_01v8 ad=0.0878 pd=0.92 as=0.0878 ps=0.92 w=0.65 l=0.15
X22 Y B VPWR VPB sky130_fd_pr__pfet_01v8_hvt ad=0.135 pd=1.27 as=0.135 ps=1.27 w=1 l=0.15
X23 VPWR A Y VPB sky130_fd_pr__pfet_01v8_hvt ad=0.38 pd=2.76 as=0.135 ps=1.27 w=1 l=0.15
X24 VGND B a_27_47# VNB sky130_fd_pr__nfet_01v8 ad=0.0878 pd=0.92 as=0.0878 ps=0.92 w=0.65 l=0.15
X25 Y A a_27_47# VNB sky130_fd_pr__nfet_01v8 ad=0.0878 pd=0.92 as=0.0878 ps=0.92 w=0.65 l=0.15
X26 VPWR B Y VPB sky130_fd_pr__pfet_01v8_hvt ad=0.135 pd=1.27 as=0.135 ps=1.27 w=1 l=0.15
X27 Y A VPWR VPB sky130_fd_pr__pfet_01v8_hvt ad=0.135 pd=1.27 as=0.135 ps=1.27 w=1 l=0.15
X28 Y B VPWR VPB sky130_fd_pr__pfet_01v8_hvt ad=0.135 pd=1.27 as=0.26 ps=2.52 w=1 l=0.15
X29 VPWR A Y VPB sky130_fd_pr__pfet_01v8_hvt ad=0.135 pd=1.27 as=0.135 ps=1.27 w=1 l=0.15
X30 VGND B a_27_47# VNB sky130_fd_pr__nfet_01v8 ad=0.0878 pd=0.92 as=0.169 ps=1.82 w=0.65 l=0.15
X31 a_27_47# A Y VNB sky130_fd_pr__nfet_01v8 ad=0.0878 pd=0.92 as=0.0878 ps=0.92 w=0.65 l=0.15
C0 VPWR Y 1.49f
C1 B VPB 0.248f
C2 B VGND 0.108f
C3 VPB VGND 0.0101f
C4 Y a_27_47# 0.337f
C5 A Y 0.644f
C6 VPWR a_27_47# 0.0392f
C7 A VPWR 0.129f
C8 Y B 0.413f
C9 A a_27_47# 0.0695f
C10 Y VPB 0.0366f
C11 Y VGND 0.0559f
C12 VPWR B 0.118f
C13 VPWR VPB 0.157f
C14 VPWR VGND 0.149f
C15 B a_27_47# 0.369f
C16 A B 0.051f
C17 VPB a_27_47# 0.00278f
C18 VGND a_27_47# 0.947f
C19 A VPB 0.247f
C20 A VGND 0.0645f
C21 VGND VNB 0.797f
C22 Y VNB 0.0446f
C23 VPWR VNB 0.753f
C24 A VNB 0.746f
C25 B VNB 0.758f
C26 VPB VNB 1.49f
C27 a_27_47# VNB 0.083f
.ends

.subckt transmission_gate G VPWR VGND O GN
X0 O G VPWR VGND sky130_fd_pr__nfet_01v8 ad=0.226 pd=1.92 as=0.226 ps=1.92 w=0.55 l=0.15
X1 O GN VPWR VPWR sky130_fd_pr__pfet_01v8 ad=0.226 pd=1.92 as=0.226 ps=1.92 w=0.55 l=0.15
C0 GN VPWR 0.26f
C1 O G 0.0806f
C2 G GN 0.0779f
C3 G VPWR 0.0769f
C4 O GN 0.0362f
C5 O VPWR 0.154f
C6 G VGND 0.21f
C7 O VGND 0.13f
C8 GN VGND 0.0906f
C9 VPWR VGND 1.26f
.ends

.subckt sky130_fd_sc_hd__decap_4 VNB VPB VGND VPWR
X0 VPWR VGND VPWR VPB sky130_fd_pr__pfet_01v8_hvt ad=0.226 pd=2.26 as=0.452 ps=4.52 w=0.87 l=1.05
X1 VGND VPWR VGND VNB sky130_fd_pr__nfet_01v8 ad=0.143 pd=1.62 as=0.286 ps=3.24 w=0.55 l=1.05
C0 VGND VPWR 0.546f
C1 VPWR VPB 0.0787f
C2 VGND VPB 0.116f
C3 VPWR VNB 0.619f
C4 VGND VNB 0.554f
C5 VPB VNB 0.428f
.ends

.subckt sky130_fd_sc_hd__dfbbn_1 VNB VPB VGND VPWR Q Q_N RESET_B SET_B D CLK_N a_2136_47#
+ a_791_47# a_647_21# a_891_329# a_1363_47# a_557_413# a_941_21# a_1415_315# a_473_413#
+ a_193_47# a_381_47# a_1112_329# a_1555_47# a_581_47# a_1340_413# a_1159_47# a_1256_413#
+ a_1672_329# a_27_47#
X0 a_791_47# SET_B VGND VNB sky130_fd_pr__nfet_01v8 ad=0.0974 pd=0.97 as=0.0882 ps=0.84 w=0.42 l=0.15
X1 a_1555_47# SET_B VGND VNB sky130_fd_pr__nfet_01v8 ad=0.109 pd=1.03 as=0.0703 ps=0.755 w=0.42 l=0.15
X2 VPWR RESET_B a_941_21# VPB sky130_fd_pr__pfet_01v8_hvt ad=0.154 pd=1.34 as=0.17 ps=1.81 w=0.64 l=0.15
X3 a_1415_315# SET_B VPWR VPB sky130_fd_pr__pfet_01v8_hvt ad=0.132 pd=1.22 as=0.0956 ps=0.875 w=0.42 l=0.15
X4 a_791_47# a_941_21# a_647_21# VNB sky130_fd_pr__nfet_01v8 ad=0.166 pd=1.8 as=0.0864 ps=0.91 w=0.64 l=0.15
X5 VGND a_1415_315# a_1363_47# VNB sky130_fd_pr__nfet_01v8 ad=0.0703 pd=0.755 as=0.066 ps=0.745 w=0.42 l=0.15
X6 a_1340_413# a_27_47# a_1256_413# VPB sky130_fd_pr__pfet_01v8_hvt ad=0.0787 pd=0.795 as=0.0567 ps=0.69 w=0.42 l=0.15
X7 VPWR CLK_N a_27_47# VPB sky130_fd_pr__pfet_01v8_hvt ad=0.0864 pd=0.91 as=0.166 ps=1.8 w=0.64 l=0.15
X8 a_381_47# D VPWR VPB sky130_fd_pr__pfet_01v8_hvt ad=0.0651 pd=0.73 as=0.109 ps=1.36 w=0.42 l=0.15
X9 a_473_413# a_193_47# a_381_47# VNB sky130_fd_pr__nfet_01v8 ad=0.0675 pd=0.735 as=0.066 ps=0.745 w=0.36 l=0.15
X10 a_1555_47# a_941_21# a_1415_315# VNB sky130_fd_pr__nfet_01v8 ad=0.166 pd=1.8 as=0.0864 ps=0.91 w=0.64 l=0.15
X11 VPWR a_1415_315# a_2136_47# VPB sky130_fd_pr__pfet_01v8_hvt ad=0.149 pd=1.33 as=0.166 ps=1.8 w=0.64 l=0.15
X12 a_1256_413# a_193_47# a_1112_329# VPB sky130_fd_pr__pfet_01v8_hvt ad=0.0567 pd=0.69 as=0.174 ps=1.41 w=0.42 l=0.15
X13 a_581_47# a_27_47# a_473_413# VNB sky130_fd_pr__nfet_01v8 ad=0.0671 pd=0.75 as=0.0675 ps=0.735 w=0.36 l=0.15
X14 a_647_21# a_473_413# a_791_47# VNB sky130_fd_pr__nfet_01v8 ad=0.0864 pd=0.91 as=0.0974 ps=0.97 w=0.64 l=0.15
X15 a_647_21# SET_B VPWR VPB sky130_fd_pr__pfet_01v8_hvt ad=0.147 pd=1.23 as=0.0798 ps=0.8 w=0.42 l=0.15
X16 VPWR a_941_21# a_891_329# VPB sky130_fd_pr__pfet_01v8_hvt ad=0.225 pd=1.38 as=0.113 ps=1.11 w=0.84 l=0.15
X17 a_557_413# a_193_47# a_473_413# VPB sky130_fd_pr__pfet_01v8_hvt ad=0.0945 pd=0.87 as=0.0567 ps=0.69 w=0.42 l=0.15
X18 a_193_47# a_27_47# VGND VNB sky130_fd_pr__nfet_01v8 ad=0.109 pd=1.36 as=0.0567 ps=0.69 w=0.42 l=0.15
X19 Q a_2136_47# VPWR VPB sky130_fd_pr__pfet_01v8_hvt ad=0.26 pd=2.52 as=0.149 ps=1.33 w=1 l=0.15
X20 a_473_413# a_27_47# a_381_47# VPB sky130_fd_pr__pfet_01v8_hvt ad=0.0567 pd=0.69 as=0.0651 ps=0.73 w=0.42 l=0.15
X21 a_891_329# a_473_413# a_647_21# VPB sky130_fd_pr__pfet_01v8_hvt ad=0.113 pd=1.11 as=0.147 ps=1.23 w=0.84 l=0.15
X22 Q_N a_1415_315# VPWR VPB sky130_fd_pr__pfet_01v8_hvt ad=0.26 pd=2.52 as=0.154 ps=1.34 w=1 l=0.15
X23 VGND RESET_B a_941_21# VNB sky130_fd_pr__nfet_01v8 ad=0.097 pd=0.975 as=0.109 ps=1.36 w=0.42 l=0.15
X24 Q a_2136_47# VGND VNB sky130_fd_pr__nfet_01v8 ad=0.169 pd=1.82 as=0.097 ps=0.975 w=0.65 l=0.15
X25 VPWR a_647_21# a_557_413# VPB sky130_fd_pr__pfet_01v8_hvt ad=0.0798 pd=0.8 as=0.0945 ps=0.87 w=0.42 l=0.15
X26 a_1112_329# a_647_21# VPWR VPB sky130_fd_pr__pfet_01v8_hvt ad=0.174 pd=1.41 as=0.225 ps=1.38 w=0.84 l=0.15
X27 VGND a_647_21# a_581_47# VNB sky130_fd_pr__nfet_01v8 ad=0.0882 pd=0.84 as=0.0671 ps=0.75 w=0.42 l=0.15
X28 VGND a_1415_315# a_2136_47# VNB sky130_fd_pr__nfet_01v8 ad=0.097 pd=0.975 as=0.109 ps=1.36 w=0.42 l=0.15
X29 a_193_47# a_27_47# VPWR VPB sky130_fd_pr__pfet_01v8_hvt ad=0.166 pd=1.8 as=0.0864 ps=0.91 w=0.64 l=0.15
X30 VPWR a_941_21# a_1672_329# VPB sky130_fd_pr__pfet_01v8_hvt ad=0.218 pd=2.2 as=0.0882 ps=1.05 w=0.84 l=0.15
X31 VPWR a_1415_315# a_1340_413# VPB sky130_fd_pr__pfet_01v8_hvt ad=0.0956 pd=0.875 as=0.0787 ps=0.795 w=0.42 l=0.15
X32 a_1363_47# a_193_47# a_1256_413# VNB sky130_fd_pr__nfet_01v8 ad=0.066 pd=0.745 as=0.0486 ps=0.63 w=0.36 l=0.15
X33 Q_N a_1415_315# VGND VNB sky130_fd_pr__nfet_01v8 ad=0.169 pd=1.82 as=0.097 ps=0.975 w=0.65 l=0.15
X34 a_381_47# D VGND VNB sky130_fd_pr__nfet_01v8 ad=0.066 pd=0.745 as=0.109 ps=1.36 w=0.42 l=0.15
X35 a_1159_47# a_647_21# VGND VNB sky130_fd_pr__nfet_01v8 ad=0.116 pd=1.09 as=0.166 ps=1.8 w=0.64 l=0.15
X36 a_1672_329# a_1256_413# a_1415_315# VPB sky130_fd_pr__pfet_01v8_hvt ad=0.0882 pd=1.05 as=0.132 ps=1.22 w=0.84 l=0.15
X37 VGND CLK_N a_27_47# VNB sky130_fd_pr__nfet_01v8 ad=0.0567 pd=0.69 as=0.109 ps=1.36 w=0.42 l=0.15
X38 a_1256_413# a_27_47# a_1159_47# VNB sky130_fd_pr__nfet_01v8 ad=0.0486 pd=0.63 as=0.116 ps=1.09 w=0.36 l=0.15
X39 a_1415_315# a_1256_413# a_1555_47# VNB sky130_fd_pr__nfet_01v8 ad=0.0864 pd=0.91 as=0.109 ps=1.03 w=0.64 l=0.15
C0 a_647_21# a_1159_47# 9.75e-19
C1 a_647_21# VGND 0.053f
C2 a_193_47# a_557_413# 0.0018f
C3 a_27_47# a_891_329# 2.46e-19
C4 a_791_47# a_1159_47# 3.34e-19
C5 a_381_47# VGND 0.0775f
C6 a_791_47# VGND 0.164f
C7 a_27_47# D 0.11f
C8 a_2136_47# Q 0.0721f
C9 a_1555_47# SET_B 0.0131f
C10 a_2136_47# VPWR 0.139f
C11 a_193_47# a_1159_47# 2.14e-20
C12 VPB CLK_N 0.0706f
C13 a_1159_47# a_1256_413# 0.00386f
C14 a_941_21# VPB 0.142f
C15 a_193_47# VGND 0.0661f
C16 VGND Q_N 0.0862f
C17 a_1256_413# VGND 0.127f
C18 a_941_21# a_1415_315# 0.267f
C19 a_647_21# RESET_B 6.51e-21
C20 a_381_47# RESET_B 3.34e-21
C21 a_27_47# SET_B 0.309f
C22 a_381_47# a_647_21# 8.07e-20
C23 a_941_21# a_1112_329# 0.00652f
C24 a_2136_47# VGND 0.114f
C25 a_647_21# a_791_47# 0.0697f
C26 a_1555_47# VPWR 1.3e-19
C27 a_1363_47# SET_B 7.87e-19
C28 VPB D 0.0817f
C29 a_941_21# CLK_N 5.45e-20
C30 a_193_47# RESET_B 6.8e-20
C31 RESET_B Q_N 0.0017f
C32 a_1256_413# RESET_B 4.43e-20
C33 a_1340_413# VPWR 0.00281f
C34 a_473_413# a_27_47# 0.159f
C35 a_647_21# a_193_47# 0.117f
C36 a_647_21# a_1256_413# 0.00189f
C37 a_381_47# a_193_47# 0.189f
C38 a_193_47# a_791_47# 6.04e-20
C39 a_27_47# a_581_47# 0.00206f
C40 a_27_47# Q 2.71e-20
C41 a_791_47# a_1256_413# 0.00316f
C42 a_27_47# VPWR 0.146f
C43 a_941_21# a_891_329# 1.21e-20
C44 a_193_47# a_1672_329# 7.17e-20
C45 a_1555_47# VGND 0.157f
C46 a_2136_47# RESET_B 4.99e-19
C47 a_1672_329# Q_N 2.1e-20
C48 VPB SET_B 0.147f
C49 a_941_21# D 1.12e-19
C50 a_193_47# Q_N 1.07e-19
C51 a_27_47# a_557_413# 4.45e-20
C52 a_193_47# a_1256_413# 0.0334f
C53 a_1256_413# Q_N 1e-20
C54 a_1415_315# SET_B 0.141f
C55 a_27_47# a_1159_47# 0.00272f
C56 a_473_413# VPB 0.0627f
C57 a_27_47# VGND 0.292f
C58 a_473_413# a_1415_315# 4.59e-22
C59 a_193_47# a_2136_47# 1.03e-19
C60 a_1363_47# VGND 0.00192f
C61 a_1555_47# RESET_B 3.78e-20
C62 a_2136_47# Q_N 0.175f
C63 Q VPB 0.0123f
C64 VPB VPWR 0.255f
C65 a_941_21# SET_B 0.096f
C66 a_1415_315# Q 0.00311f
C67 a_1415_315# VPWR 0.315f
C68 a_27_47# RESET_B 2.12e-19
C69 a_473_413# a_941_21# 0.0633f
C70 a_1112_329# VPWR 0.0164f
C71 a_1555_47# a_1256_413# 0.0256f
C72 a_647_21# a_27_47# 0.15f
C73 a_941_21# Q 1.7e-19
C74 VPB VGND 0.0151f
C75 CLK_N VPWR 0.0196f
C76 a_941_21# VPWR 0.197f
C77 a_381_47# a_27_47# 0.0456f
C78 a_1415_315# VGND 0.0797f
C79 a_27_47# a_791_47# 0.00134f
C80 a_1340_413# a_1256_413# 0.00857f
C81 a_1363_47# a_791_47# 2.46e-21
C82 a_473_413# D 1.43e-19
C83 a_27_47# a_193_47# 0.798f
C84 a_27_47# Q_N 4.78e-20
C85 a_27_47# a_1256_413# 0.14f
C86 a_891_329# VPWR 0.00984f
C87 a_1112_329# VGND 3.84e-19
C88 a_1363_47# a_1256_413# 0.00707f
C89 a_941_21# a_1159_47# 3.73e-19
C90 CLK_N VGND 0.0196f
C91 D VPWR 0.0153f
C92 VPB RESET_B 0.0476f
C93 a_941_21# VGND 0.134f
C94 a_1415_315# RESET_B 0.0851f
C95 a_647_21# VPB 0.141f
C96 a_381_47# VPB 0.0197f
C97 a_27_47# a_2136_47# 1.76e-19
C98 a_473_413# SET_B 0.14f
C99 Q SET_B 1.24e-19
C100 a_193_47# VPB 0.198f
C101 SET_B VPWR 0.0255f
C102 D VGND 0.0134f
C103 VPB Q_N 0.0102f
C104 a_1256_413# VPB 0.0597f
C105 a_1415_315# a_1672_329# 0.00869f
C106 a_941_21# RESET_B 0.105f
C107 a_647_21# a_1112_329# 9.46e-19
C108 a_1415_315# a_193_47# 0.0494f
C109 a_1415_315# Q_N 0.121f
C110 a_1415_315# a_1256_413# 0.207f
C111 a_941_21# a_647_21# 0.199f
C112 a_941_21# a_381_47# 3.79e-20
C113 a_473_413# a_581_47# 0.00807f
C114 a_941_21# a_791_47# 0.00926f
C115 a_473_413# VPWR 0.108f
C116 a_1555_47# a_1363_47# 4.19e-20
C117 a_27_47# a_1340_413# 2.13e-19
C118 a_193_47# a_1112_329# 0.00907f
C119 a_2136_47# VPB 0.0467f
C120 a_1112_329# a_1256_413# 0.00412f
C121 a_941_21# a_1672_329# 0.0016f
C122 a_1159_47# SET_B 0.00459f
C123 Q VPWR 0.0992f
C124 a_193_47# CLK_N 7.87e-19
C125 SET_B VGND 0.311f
C126 a_1415_315# a_2136_47# 0.0967f
C127 a_941_21# a_193_47# 0.126f
C128 a_941_21# Q_N 0.0054f
C129 a_941_21# a_1256_413# 0.13f
C130 a_473_413# a_557_413# 0.00972f
C131 a_647_21# a_891_329# 0.0104f
C132 a_557_413# VPWR 0.0042f
C133 a_381_47# D 0.148f
C134 a_473_413# VGND 0.147f
C135 a_193_47# a_891_329# 0.00276f
C136 a_1555_47# VPB 8.96e-20
C137 a_941_21# a_2136_47# 5.84e-19
C138 a_1159_47# VPWR 6.2e-19
C139 a_581_47# VGND 0.0017f
C140 Q VGND 0.0643f
C141 a_193_47# D 0.0986f
C142 VPWR VGND 0.0801f
C143 SET_B RESET_B 0.00229f
C144 a_1415_315# a_1555_47# 0.0383f
C145 a_647_21# SET_B 0.175f
C146 a_791_47# SET_B 0.03f
C147 a_27_47# VPB 0.224f
C148 a_473_413# RESET_B 7.48e-21
C149 a_1415_315# a_27_47# 0.0321f
C150 a_941_21# a_1555_47# 0.0526f
C151 a_1159_47# VGND 0.0108f
C152 Q RESET_B 6.25e-20
C153 a_473_413# a_647_21# 0.206f
C154 a_193_47# SET_B 0.0123f
C155 VPWR RESET_B 0.0099f
C156 SET_B Q_N 3.72e-19
C157 a_1256_413# SET_B 0.177f
C158 a_473_413# a_381_47# 0.0369f
C159 a_941_21# a_1340_413# 9.41e-19
C160 a_473_413# a_791_47# 0.025f
C161 a_647_21# VPWR 0.16f
C162 a_381_47# a_581_47# 3.81e-19
C163 a_27_47# a_1112_329# 1.09e-19
C164 a_381_47# VPWR 0.0894f
C165 a_27_47# CLK_N 0.212f
C166 a_941_21# a_27_47# 0.14f
C167 a_473_413# a_193_47# 0.15f
C168 a_647_21# a_557_413# 6.69e-20
C169 a_2136_47# SET_B 3.22e-19
C170 a_1672_329# VPWR 0.00438f
C171 a_941_21# a_1363_47# 1.96e-20
C172 a_381_47# a_557_413# 8.99e-19
C173 a_193_47# Q 5.52e-20
C174 a_193_47# VPWR 0.443f
C175 VPWR Q_N 0.0614f
C176 VGND RESET_B 0.0282f
C177 a_1256_413# VPWR 0.12f
C178 a_1415_315# VPB 0.242f
C179 Q VNB 0.0945f
C180 Q_N VNB 0.0135f
C181 RESET_B VNB 0.133f
C182 VGND VNB 1.3f
C183 VPWR VNB 1.05f
C184 SET_B VNB 0.264f
C185 D VNB 0.125f
C186 CLK_N VNB 0.197f
C187 VPB VNB 2.38f
C188 a_1555_47# VNB 0.00871f
C189 a_2136_47# VNB 0.133f
C190 a_791_47# VNB 0.0125f
C191 a_381_47# VNB 0.0218f
C192 a_1256_413# VNB 0.12f
C193 a_1415_315# VNB 0.394f
C194 a_941_21# VNB 0.245f
C195 a_473_413# VNB 0.119f
C196 a_647_21# VNB 0.24f
C197 a_193_47# VNB 0.27f
C198 a_27_47# VNB 0.492f
.ends

.subckt sky130_fd_sc_hd__inv_1 VNB VPB VGND VPWR A Y
X0 Y A VGND VNB sky130_fd_pr__nfet_01v8 ad=0.169 pd=1.82 as=0.169 ps=1.82 w=0.65 l=0.15
X1 Y A VPWR VPB sky130_fd_pr__pfet_01v8_hvt ad=0.26 pd=2.52 as=0.26 ps=2.52 w=1 l=0.15
C0 A Y 0.0476f
C1 VPWR Y 0.128f
C2 VGND VPB 0.00948f
C3 VGND A 0.04f
C4 VPB A 0.0451f
C5 VGND VPWR 0.0338f
C6 VPB VPWR 0.0545f
C7 VGND Y 0.0998f
C8 VPB Y 0.0177f
C9 A VPWR 0.037f
C10 VGND VNB 0.251f
C11 Y VNB 0.0961f
C12 VPWR VNB 0.219f
C13 A VNB 0.167f
C14 VPB VNB 0.339f
.ends

.subckt sky130_fd_sc_hd__inv_8 VNB VPB VGND VPWR Y A
X0 VPWR A Y VPB sky130_fd_pr__pfet_01v8_hvt ad=0.135 pd=1.27 as=0.135 ps=1.27 w=1 l=0.15
X1 Y A VPWR VPB sky130_fd_pr__pfet_01v8_hvt ad=0.135 pd=1.27 as=0.135 ps=1.27 w=1 l=0.15
X2 Y A VGND VNB sky130_fd_pr__nfet_01v8 ad=0.0878 pd=0.92 as=0.0878 ps=0.92 w=0.65 l=0.15
X3 Y A VGND VNB sky130_fd_pr__nfet_01v8 ad=0.0878 pd=0.92 as=0.0878 ps=0.92 w=0.65 l=0.15
X4 VPWR A Y VPB sky130_fd_pr__pfet_01v8_hvt ad=0.135 pd=1.27 as=0.135 ps=1.27 w=1 l=0.15
X5 Y A VPWR VPB sky130_fd_pr__pfet_01v8_hvt ad=0.135 pd=1.27 as=0.26 ps=2.52 w=1 l=0.15
X6 Y A VGND VNB sky130_fd_pr__nfet_01v8 ad=0.0878 pd=0.92 as=0.169 ps=1.82 w=0.65 l=0.15
X7 VPWR A Y VPB sky130_fd_pr__pfet_01v8_hvt ad=0.26 pd=2.52 as=0.135 ps=1.27 w=1 l=0.15
X8 Y A VGND VNB sky130_fd_pr__nfet_01v8 ad=0.0878 pd=0.92 as=0.0878 ps=0.92 w=0.65 l=0.15
X9 Y A VPWR VPB sky130_fd_pr__pfet_01v8_hvt ad=0.135 pd=1.27 as=0.135 ps=1.27 w=1 l=0.15
X10 VPWR A Y VPB sky130_fd_pr__pfet_01v8_hvt ad=0.135 pd=1.27 as=0.135 ps=1.27 w=1 l=0.15
X11 VGND A Y VNB sky130_fd_pr__nfet_01v8 ad=0.0878 pd=0.92 as=0.0878 ps=0.92 w=0.65 l=0.15
X12 VGND A Y VNB sky130_fd_pr__nfet_01v8 ad=0.0878 pd=0.92 as=0.0878 ps=0.92 w=0.65 l=0.15
X13 VGND A Y VNB sky130_fd_pr__nfet_01v8 ad=0.0878 pd=0.92 as=0.0878 ps=0.92 w=0.65 l=0.15
X14 Y A VPWR VPB sky130_fd_pr__pfet_01v8_hvt ad=0.135 pd=1.27 as=0.135 ps=1.27 w=1 l=0.15
X15 VGND A Y VNB sky130_fd_pr__nfet_01v8 ad=0.169 pd=1.82 as=0.0878 ps=0.92 w=0.65 l=0.15
C0 A Y 0.829f
C1 VPWR Y 0.78f
C2 VGND VPB 0.00793f
C3 VGND A 0.117f
C4 VPB A 0.254f
C5 VGND VPWR 0.0854f
C6 VPB VPWR 0.1f
C7 VGND Y 0.574f
C8 VPB Y 0.0348f
C9 A VPWR 0.128f
C10 VGND VNB 0.51f
C11 Y VNB 0.127f
C12 VPWR VNB 0.45f
C13 A VNB 0.771f
C14 VPB VNB 0.871f
.ends

.subckt sky130_fd_sc_hd__nor2_1 VNB VPB VGND VPWR A B Y a_109_297#
X0 VPWR A a_109_297# VPB sky130_fd_pr__pfet_01v8_hvt ad=0.26 pd=2.52 as=0.105 ps=1.21 w=1 l=0.15
X1 VGND A Y VNB sky130_fd_pr__nfet_01v8 ad=0.169 pd=1.82 as=0.0878 ps=0.92 w=0.65 l=0.15
X2 a_109_297# B Y VPB sky130_fd_pr__pfet_01v8_hvt ad=0.105 pd=1.21 as=0.26 ps=2.52 w=1 l=0.15
X3 Y B VGND VNB sky130_fd_pr__nfet_01v8 ad=0.0878 pd=0.92 as=0.169 ps=1.82 w=0.65 l=0.15
C0 VPB A 0.0415f
C1 VPWR a_109_297# 0.00638f
C2 B A 0.0584f
C3 VGND VPWR 0.0314f
C4 Y VPWR 0.0995f
C5 VPWR VPB 0.0449f
C6 VGND a_109_297# 0.00128f
C7 Y a_109_297# 0.0113f
C8 VPWR B 0.0148f
C9 VPWR A 0.0528f
C10 VGND Y 0.154f
C11 VGND VPB 0.00456f
C12 Y VPB 0.0139f
C13 VGND B 0.0451f
C14 Y B 0.0877f
C15 VGND A 0.0486f
C16 Y A 0.0471f
C17 VPB B 0.0367f
C18 VGND VNB 0.263f
C19 VPWR VNB 0.214f
C20 Y VNB 0.0605f
C21 A VNB 0.149f
C22 B VNB 0.143f
C23 VPB VNB 0.339f
.ends

.subckt sky130_fd_sc_hd__inv_4 VNB VPB VPWR VGND Y A
X0 VPWR A Y VPB sky130_fd_pr__pfet_01v8_hvt ad=0.26 pd=2.52 as=0.135 ps=1.27 w=1 l=0.15
X1 Y A VPWR VPB sky130_fd_pr__pfet_01v8_hvt ad=0.135 pd=1.27 as=0.135 ps=1.27 w=1 l=0.15
X2 Y A VGND VNB sky130_fd_pr__nfet_01v8 ad=0.0878 pd=0.92 as=0.169 ps=1.82 w=0.65 l=0.15
X3 VPWR A Y VPB sky130_fd_pr__pfet_01v8_hvt ad=0.135 pd=1.27 as=0.135 ps=1.27 w=1 l=0.15
X4 VGND A Y VNB sky130_fd_pr__nfet_01v8 ad=0.0878 pd=0.92 as=0.0878 ps=0.92 w=0.65 l=0.15
X5 Y A VPWR VPB sky130_fd_pr__pfet_01v8_hvt ad=0.135 pd=1.27 as=0.26 ps=2.52 w=1 l=0.15
X6 VGND A Y VNB sky130_fd_pr__nfet_01v8 ad=0.169 pd=1.82 as=0.0878 ps=0.92 w=0.65 l=0.15
X7 Y A VGND VNB sky130_fd_pr__nfet_01v8 ad=0.0878 pd=0.92 as=0.0878 ps=0.92 w=0.65 l=0.15
C0 VGND VPWR 0.0501f
C1 VPB VPWR 0.0654f
C2 A VGND 0.0819f
C3 A VPB 0.142f
C4 VGND VPB 0.00667f
C5 Y VPWR 0.362f
C6 A Y 0.36f
C7 VGND Y 0.263f
C8 Y VPB 0.0159f
C9 A VPWR 0.0982f
C10 VGND VNB 0.327f
C11 Y VNB 0.0849f
C12 VPWR VNB 0.296f
C13 A VNB 0.452f
C14 VPB VNB 0.516f
.ends

.subckt sky130_fd_sc_hd__inv_2 VNB VPB VPWR VGND Y A
X0 Y A VPWR VPB sky130_fd_pr__pfet_01v8_hvt ad=0.135 pd=1.27 as=0.26 ps=2.52 w=1 l=0.15
X1 VGND A Y VNB sky130_fd_pr__nfet_01v8 ad=0.169 pd=1.82 as=0.0878 ps=0.92 w=0.65 l=0.15
X2 Y A VGND VNB sky130_fd_pr__nfet_01v8 ad=0.0878 pd=0.92 as=0.169 ps=1.82 w=0.65 l=0.15
X3 VPWR A Y VPB sky130_fd_pr__pfet_01v8_hvt ad=0.26 pd=2.52 as=0.135 ps=1.27 w=1 l=0.15
C0 VGND VPWR 0.0423f
C1 VPB VPWR 0.0521f
C2 A VGND 0.0638f
C3 A VPB 0.0742f
C4 VGND VPB 0.00649f
C5 Y VPWR 0.209f
C6 A Y 0.0894f
C7 VGND Y 0.155f
C8 Y VPB 0.0061f
C9 A VPWR 0.0631f
C10 VGND VNB 0.266f
C11 Y VNB 0.0332f
C12 VPWR VNB 0.246f
C13 A VNB 0.263f
C14 VPB VNB 0.339f
.ends

.subckt sky130_fd_sc_hd__conb_1 VNB VPB VGND VPWR LO HI
R0 VPWR HI sky130_fd_pr__res_generic_po w=0.48 l=0.045
R1 LO VGND sky130_fd_pr__res_generic_po w=0.48 l=0.045
C0 VPB VGND 0.00479f
C1 VPWR HI 0.0726f
C2 VPWR LO 0.241f
C3 VPWR VGND 0.0317f
C4 VPB VPWR 0.158f
C5 HI LO 0.0683f
C6 HI VGND 0.207f
C7 VPB HI 0.00473f
C8 LO VGND 0.0605f
C9 VPB LO 0.134f
C10 VGND VNB 0.406f
C11 LO VNB 0.166f
C12 HI VNB 0.25f
C13 VPWR VNB 0.297f
C14 VPB VNB 0.339f
.ends

.subckt sky130_fd_sc_hd__nand3_1 VNB VPB VGND VPWR A B Y C a_193_47# a_109_47#
X0 VPWR B Y VPB sky130_fd_pr__pfet_01v8_hvt ad=0.165 pd=1.33 as=0.135 ps=1.27 w=1 l=0.15
X1 Y A VPWR VPB sky130_fd_pr__pfet_01v8_hvt ad=0.26 pd=2.52 as=0.165 ps=1.33 w=1 l=0.15
X2 a_193_47# B a_109_47# VNB sky130_fd_pr__nfet_01v8 ad=0.107 pd=0.98 as=0.0878 ps=0.92 w=0.65 l=0.15
X3 Y A a_193_47# VNB sky130_fd_pr__nfet_01v8 ad=0.169 pd=1.82 as=0.107 ps=0.98 w=0.65 l=0.15
X4 Y C VPWR VPB sky130_fd_pr__pfet_01v8_hvt ad=0.135 pd=1.27 as=0.26 ps=2.52 w=1 l=0.15
X5 a_109_47# C VGND VNB sky130_fd_pr__nfet_01v8 ad=0.0878 pd=0.92 as=0.169 ps=1.82 w=0.65 l=0.15
C0 Y a_193_47# 0.0117f
C1 Y A 0.0909f
C2 VPB C 0.0373f
C3 VGND VPB 0.00519f
C4 a_109_47# VGND 9.04e-19
C5 VGND C 0.0415f
C6 VPWR a_193_47# 5.03e-19
C7 B a_193_47# 0.00347f
C8 VPWR A 0.0186f
C9 VPWR Y 0.317f
C10 B A 0.0823f
C11 Y B 0.149f
C12 A VPB 0.0368f
C13 VGND a_193_47# 0.00142f
C14 Y VPB 0.0166f
C15 VPWR B 0.017f
C16 A VGND 0.01f
C17 Y a_109_47# 0.0108f
C18 Y C 0.0724f
C19 Y VGND 0.181f
C20 VPWR VPB 0.0506f
C21 B VPB 0.0268f
C22 VPWR a_109_47# 2.94e-19
C23 VPWR C 0.0414f
C24 VPWR VGND 0.0416f
C25 a_109_47# B 4.42e-19
C26 B C 0.051f
C27 B VGND 0.0116f
C28 VGND VNB 0.263f
C29 Y VNB 0.0816f
C30 VPWR VNB 0.247f
C31 A VNB 0.143f
C32 B VNB 0.0976f
C33 C VNB 0.157f
C34 VPB VNB 0.428f
.ends

.subckt sky130_fd_sc_hd__nand2_1 VNB VPB VGND VPWR A Y B a_113_47#
X0 VPWR A Y VPB sky130_fd_pr__pfet_01v8_hvt ad=0.26 pd=2.52 as=0.135 ps=1.27 w=1 l=0.15
X1 Y A a_113_47# VNB sky130_fd_pr__nfet_01v8 ad=0.169 pd=1.82 as=0.0878 ps=0.92 w=0.65 l=0.15
X2 a_113_47# B VGND VNB sky130_fd_pr__nfet_01v8 ad=0.0878 pd=0.92 as=0.169 ps=1.82 w=0.65 l=0.15
X3 Y B VPWR VPB sky130_fd_pr__pfet_01v8_hvt ad=0.135 pd=1.27 as=0.26 ps=2.52 w=1 l=0.15
C0 VGND VPWR 0.0322f
C1 VPWR Y 0.211f
C2 B VPWR 0.0478f
C3 A VGND 0.00949f
C4 A Y 0.0855f
C5 A B 0.051f
C6 VGND Y 0.139f
C7 VGND B 0.0544f
C8 B Y 0.0481f
C9 VPB VPWR 0.0509f
C10 VPB A 0.0379f
C11 VPB VGND 0.0044f
C12 VPB Y 0.00618f
C13 VPB B 0.0391f
C14 a_113_47# VPWR 1.78e-19
C15 VGND a_113_47# 0.0019f
C16 A VPWR 0.0444f
C17 a_113_47# Y 0.00937f
C18 VGND VNB 0.232f
C19 Y VNB 0.0557f
C20 VPWR VNB 0.245f
C21 A VNB 0.143f
C22 B VNB 0.146f
C23 VPB VNB 0.339f
.ends

.subckt CDC Reset CLOCK_GEN.SR_Op.Q V_GND V_LOW V_HIGH V_SENSE RISING_COUNTER.COUNT_SUB_DFF0.Q RISING_COUNTER.COUNT_SUB_DFF1.Q RISING_COUNTER.COUNT_SUB_DFF2.Q RISING_COUNTER.COUNT_SUB_DFF3.Q RISING_COUNTER.COUNT_SUB_DFF4.Q RISING_COUNTER.COUNT_SUB_DFF5.Q RISING_COUNTER.COUNT_SUB_DFF6.Q RISING_COUNTER.COUNT_SUB_DFF7.Q RISING_COUNTER.COUNT_SUB_DFF8.Q RISING_COUNTER.COUNT_SUB_DFF9.Q RISING_COUNTER.COUNT_SUB_DFF10.Q RISING_COUNTER.COUNT_SUB_DFF11.Q RISING_COUNTER.COUNT_SUB_DFF12.Q RISING_COUNTER.COUNT_SUB_DFF13.Q RISING_COUNTER.COUNT_SUB_DFF14.Q RISING_COUNTER.COUNT_SUB_DFF15.Q FALLING_COUNTER.COUNT_SUB_DFF0.Q FALLING_COUNTER.COUNT_SUB_DFF1.Q FALLING_COUNTER.COUNT_SUB_DFF2.Q FALLING_COUNTER.COUNT_SUB_DFF3.Q FALLING_COUNTER.COUNT_SUB_DFF4.Q FALLING_COUNTER.COUNT_SUB_DFF5.Q FALLING_COUNTER.COUNT_SUB_DFF6.Q FALLING_COUNTER.COUNT_SUB_DFF7.Q FALLING_COUNTER.COUNT_SUB_DFF8.Q FALLING_COUNTER.COUNT_SUB_DFF9.Q FALLING_COUNTER.COUNT_SUB_DFF10.Q FALLING_COUNTER.COUNT_SUB_DFF11.Q FALLING_COUNTER.COUNT_SUB_DFF12.Q FALLING_COUNTER.COUNT_SUB_DFF13.Q FALLING_COUNTER.COUNT_SUB_DFF14.Q FALLING_COUNTER.COUNT_SUB_DFF15.Q FULL_COUNTER.COUNT_SUB_DFF0.Q FULL_COUNTER.COUNT_SUB_DFF1.Q FULL_COUNTER.COUNT_SUB_DFF2.Q FULL_COUNTER.COUNT_SUB_DFF3.Q FULL_COUNTER.COUNT_SUB_DFF4.Q FULL_COUNTER.COUNT_SUB_DFF5.Q FULL_COUNTER.COUNT_SUB_DFF6.Q FULL_COUNTER.COUNT_SUB_DFF7.Q FULL_COUNTER.COUNT_SUB_DFF8.Q FULL_COUNTER.COUNT_SUB_DFF9.Q FULL_COUNTER.COUNT_SUB_DFF10.Q FULL_COUNTER.COUNT_SUB_DFF11.Q FULL_COUNTER.COUNT_SUB_DFF12.Q FULL_COUNTER.COUNT_SUB_DFF13.Q FULL_COUNTER.COUNT_SUB_DFF14.Q FULL_COUNTER.COUNT_SUB_DFF15.Q FULL_COUNTER.COUNT_SUB_DFF16.Q FULL_COUNTER.COUNT_SUB_DFF17.Q FULL_COUNTER.COUNT_SUB_DFF18.Q FULL_COUNTER.COUNT_SUB_DFF19.Q
Xsky130_fd_sc_hd__inv_16_3 V_GND V_LOW V_GND V_LOW sky130_fd_sc_hd__inv_16_5/A sky130_fd_sc_hd__inv_16_3/A
+ sky130_fd_sc_hd__inv_16
Xsky130_fd_sc_hd__nand2_8_2 V_GND V_LOW V_GND V_LOW sky130_fd_sc_hd__nand3_1_2/Y CLOCK_GEN.SR_Op.Q
+ sky130_fd_sc_hd__nand2_8_4/Y sky130_fd_sc_hd__nand2_8_2/a_27_47# sky130_fd_sc_hd__nand2_8
Xtransmission_gate_31 Reset V_HIGH V_GND V_SENSE transmission_gate_9/GN transmission_gate
Xtransmission_gate_20 Reset V_HIGH V_GND V_SENSE transmission_gate_9/GN transmission_gate
Xtransmission_gate_75 Reset V_HIGH V_GND V_SENSE transmission_gate_9/GN transmission_gate
Xtransmission_gate_53 Reset V_HIGH V_GND V_SENSE transmission_gate_9/GN transmission_gate
Xtransmission_gate_42 Reset V_HIGH V_GND V_SENSE transmission_gate_9/GN transmission_gate
Xtransmission_gate_64 Reset V_HIGH V_GND V_SENSE transmission_gate_9/GN transmission_gate
Xsky130_fd_sc_hd__decap_4_90 V_GND V_HIGH V_GND V_HIGH sky130_fd_sc_hd__decap_4
Xsky130_fd_sc_hd__dfbbn_1_6 V_GND V_LOW V_GND V_LOW FULL_COUNTER.COUNT_SUB_DFF11.Q
+ sky130_fd_sc_hd__dfbbn_1_6/Q_N sky130_fd_sc_hd__inv_16_40/Y sky130_fd_sc_hd__conb_1_10/HI
+ sky130_fd_sc_hd__inv_1_9/Y FULL_COUNTER.COUNT_SUB_DFF10.Q sky130_fd_sc_hd__dfbbn_1_6/a_2136_47#
+ sky130_fd_sc_hd__dfbbn_1_6/a_791_47# sky130_fd_sc_hd__dfbbn_1_6/a_647_21# sky130_fd_sc_hd__dfbbn_1_6/a_891_329#
+ sky130_fd_sc_hd__dfbbn_1_6/a_1363_47# sky130_fd_sc_hd__dfbbn_1_6/a_557_413# sky130_fd_sc_hd__dfbbn_1_6/a_941_21#
+ sky130_fd_sc_hd__dfbbn_1_6/a_1415_315# sky130_fd_sc_hd__dfbbn_1_6/a_473_413# sky130_fd_sc_hd__dfbbn_1_6/a_193_47#
+ sky130_fd_sc_hd__dfbbn_1_6/a_381_47# sky130_fd_sc_hd__dfbbn_1_6/a_1112_329# sky130_fd_sc_hd__dfbbn_1_6/a_1555_47#
+ sky130_fd_sc_hd__dfbbn_1_6/a_581_47# sky130_fd_sc_hd__dfbbn_1_6/a_1340_413# sky130_fd_sc_hd__dfbbn_1_6/a_1159_47#
+ sky130_fd_sc_hd__dfbbn_1_6/a_1256_413# sky130_fd_sc_hd__dfbbn_1_6/a_1672_329# sky130_fd_sc_hd__dfbbn_1_6/a_27_47#
+ sky130_fd_sc_hd__dfbbn_1
Xsky130_fd_sc_hd__inv_1_4 V_GND V_LOW V_GND V_LOW FULL_COUNTER.COUNT_SUB_DFF5.Q sky130_fd_sc_hd__inv_1_4/Y
+ sky130_fd_sc_hd__inv_1
Xsky130_fd_sc_hd__inv_1_15 V_GND V_LOW V_GND V_LOW FULL_COUNTER.COUNT_SUB_DFF17.Q
+ sky130_fd_sc_hd__inv_1_15/Y sky130_fd_sc_hd__inv_1
Xsky130_fd_sc_hd__inv_1_48 V_GND V_LOW V_GND V_LOW Reset sky130_fd_sc_hd__inv_1_48/Y
+ sky130_fd_sc_hd__inv_1
Xsky130_fd_sc_hd__inv_1_37 V_GND V_LOW V_GND V_LOW RISING_COUNTER.COUNT_SUB_DFF8.Q
+ sky130_fd_sc_hd__inv_1_37/Y sky130_fd_sc_hd__inv_1
Xsky130_fd_sc_hd__inv_1_26 V_GND V_LOW V_GND V_LOW RISING_COUNTER.COUNT_SUB_DFF14.Q
+ sky130_fd_sc_hd__inv_1_26/Y sky130_fd_sc_hd__inv_1
Xsky130_fd_sc_hd__inv_1_59 V_GND V_LOW V_GND V_LOW FALLING_COUNTER.COUNT_SUB_DFF9.Q